/*---------------------------------------------------------------------------*\
| =========                 |                                                 |
| \\      /  F ield         | OpenFOAM: The Open Source CFD Toolbox           |
|  \\    /   O peration     | Version:  2306                                  |
|   \\  /    A nd           | Website:  www.openfoam.com                      |
|    \\/     M anipulation  |                                                 |
\*---------------------------------------------------------------------------*/
Build  : _fbf00d6b-20230626 OPENFOAM=2306 version=2306
Arch   : "LSB;label=32;scalar=64"
Exec   : mySimpleFoam -parallel -decomposeParDict system/decomposeParDict.6
Date   : Mar 07 2024
Time   : 19:14:03
Host   : LegionSlim
PID    : 19847
I/O    : uncollated
Case   : /home/adrian/run/TFG/TFG_FILES/aeroDynamicSimulations/noGeometry
nProcs : 6
Hosts  :
(
    (LegionSlim 6)
)
Pstream initialized with:
    floatTransfer      : false
    nProcsSimpleSum    : 0
    nonBlockingExchange: 0 (tuning: 0)
    exchange algorithm : -1
    commsType          : nonBlocking
    polling iterations : 0
trapFpe: Floating point exception trapping enabled (FOAM_SIGFPE).
fileModificationChecking : Monitoring run-time modified files using timeStampMaster (fileModificationSkew 5, maxFileModificationPolls 20)
allowSystemOperations : Allowing user-supplied system call operations

// * * * * * * * * * * * * * * * * * * * * * * * * * * * * * * * * * * * * * //
Create time

Create mesh for time = 0


SIMPLE: no convergence criteria found. Calculations will run for 500 steps.

Reading field p

Reading field U

Reading field explicitSourceU

Reading/calculating face flux field phi

Selecting incompressible transport model Newtonian
Selecting turbulence model type RAS
Selecting RAS turbulence model kOmegaSST
Selecting patchDistMethod meshWave
RAS
{
    RASModel        kOmegaSST;
    turbulence      on;
    printCoeffs     on;
    alphaK1         0.85;
    alphaK2         1;
    alphaOmega1     0.5;
    alphaOmega2     0.856;
    gamma1          0.555556;
    gamma2          0.44;
    beta1           0.075;
    beta2           0.0828;
    betaStar        0.09;
    a1              0.31;
    b1              1;
    c1              10;
    F3              false;
    decayControl    false;
    kInf            0;
    omegaInf        0;
}

No MRF models present

Creating finite volume options from "system/fvOptions"

Selecting finite volume options type meanVelocityForce
    Source: testExplicit
    - selecting cells using cellZones (testExplicit)
    - selected 96 cell(s) with volume 96
    Initial pressure gradient = 0


Starting time loop

streamLine streamLines:
    Employing velocity field U
    automatic track length specified through number of sub cycles : 5

--> FOAM Warning : 
    From Foam::labelHashSet Foam::polyBoundaryMesh::patchSet(const Foam::UList<Foam::wordRe>&, bool, bool) const
    in file meshes/polyMesh/polyBoundaryMesh/polyBoundaryMesh.C at line 963
    Cannot find any patch or group names matching motorBikeGroup
nearWallFields near: Sampling 1 fields
wallBoundedStreamLine wallBoundedStreamLines:
    Employing velocity field UNear
Sampled surface:
    yNormal -> vtk
        sampledCuttingPlane: yNormal : plane:(0 1 0) (0 0 0) offsets:(0)

forceCoeffs forceCoeffs1:
--> FOAM Warning : 
    From Foam::labelHashSet Foam::polyBoundaryMesh::patchSet(const Foam::UList<Foam::wordRe>&, bool, bool) const
    in file meshes/polyMesh/polyBoundaryMesh/polyBoundaryMesh.C at line 963
    Cannot find any patch or group names matching motorBikeGroup
    rho: rhoInf
    Freestream density (rhoInf) set to 1
    Not including porosity effects
    magUInf: 20
    lRef   : 1.42
    Aref   : 0.75
    rhoInf : 1
    Selecting all coefficients
    - Drag force: Cd
    - Drag force front: Cd(f)
    - Drag force rear: Cd(r)
    - Lift force: Cl
    - Lift force front: Cl(f)
    - Lift force rear: Cl(r)
    - Pitch moment: CmPitch
    - Roll moment: CmRoll
    - Yaw moment: CmYaw
    - Side force: Cs
    - Side force front: Cs(f)
    - Side force rear: Cs(r)


Time = 1

smoothSolver:  Solving for Ux, Initial residual = 1, Final residual = 0.0351776, No Iterations 3
smoothSolver:  Solving for Uy, Initial residual = 0.651244, Final residual = 0.0637279, No Iterations 2
smoothSolver:  Solving for Uz, Initial residual = 0.492408, Final residual = 0.0209078, No Iterations 3
GAMG:  Solving for p, Initial residual = 1, Final residual = 0.00609554, No Iterations 3
time step continuity errors : sum local = 0.0113245, global = -0.00060185, cumulative = -0.00060185
smoothSolver:  Solving for omega, Initial residual = 0.00935707, Final residual = 0.00020137, No Iterations 2
smoothSolver:  Solving for k, Initial residual = 1, Final residual = 0.0220138, No Iterations 2
ExecutionTime = 0.13 s  ClockTime = 0 s

forceCoeffs forceCoeffs1 write:
    Coefficient	Total	Pressure	Viscous	Internal
    Cd:	0	0	0	0
    Cd(f):	0	0	0	0
    Cd(r):	0	0	0	0
    Cl:	0	0	0	0
    Cl(f):	0	0	0	0
    Cl(r):	0	0	0	0
    CmPitch:	0	0	0	0
    CmRoll:	0	0	0	0
    CmYaw:	0	0	0	0
    Cs:	0	0	0	0
    Cs(f):	0	0	0	0
    Cs(r):	0	0	0	0

    writing force and moment coefficient files.

Time = 2

--> FOAM Warning : 
    From virtual void Foam::fv::option::checkApplied() const
    in file cfdTools/general/fvOptions/fvOption.C at line 137
    Source testExplicit defined for field explicitSourceU but never used
--> FOAM Warning : 
    From virtual void Foam::fv::option::checkApplied() const
    in file cfdTools/general/fvOptions/fvOption.C at line 137
    Source testExplicit defined for field explicitSourceU but never used
smoothSolver:  Solving for Ux, Initial residual = 0.713002, Final residual = 0.0374261, No Iterations 3
smoothSolver:  Solving for Uy, Initial residual = 0.562744, Final residual = 0.0140645, No Iterations 2
smoothSolver:  Solving for Uz, Initial residual = 0.483334, Final residual = 0.0103848, No Iterations 2
GAMG:  Solving for p, Initial residual = 0.014695, Final residual = 6.37867e-05, No Iterations 3
time step continuity errors : sum local = 0.00430393, global = 0.000259512, cumulative = -0.000342338
--> FOAM Warning : 
    From virtual void Foam::fv::option::checkApplied() const
    in file cfdTools/general/fvOptions/fvOption.C at line 137
    Source testExplicit defined for field explicitSourceU but never used
--> FOAM Warning : 
    From virtual void Foam::fv::option::checkApplied() const
    in file cfdTools/general/fvOptions/fvOption.C at line 137
    Source testExplicit defined for field explicitSourceU but never used
smoothSolver:  Solving for omega, Initial residual = 0.00823656, Final residual = 0.00015894, No Iterations 2
--> FOAM Warning : 
    From virtual void Foam::fv::option::checkApplied() const
    in file cfdTools/general/fvOptions/fvOption.C at line 137
    Source testExplicit defined for field explicitSourceU but never used
--> FOAM Warning : 
    From virtual void Foam::fv::option::checkApplied() const
    in file cfdTools/general/fvOptions/fvOption.C at line 137
    Source testExplicit defined for field explicitSourceU but never used
smoothSolver:  Solving for k, Initial residual = 0.352582, Final residual = 0.00684645, No Iterations 2
ExecutionTime = 0.14 s  ClockTime = 0 s

forceCoeffs forceCoeffs1 write:
    Coefficient	Total	Pressure	Viscous	Internal
    Cd:	0	0	0	0
    Cd(f):	0	0	0	0
    Cd(r):	0	0	0	0
    Cl:	0	0	0	0
    Cl(f):	0	0	0	0
    Cl(r):	0	0	0	0
    CmPitch:	0	0	0	0
    CmRoll:	0	0	0	0
    CmYaw:	0	0	0	0
    Cs:	0	0	0	0
    Cs(f):	0	0	0	0
    Cs(r):	0	0	0	0

    writing force and moment coefficient files.

Time = 3

smoothSolver:  Solving for Ux, Initial residual = 0.570105, Final residual = 0.0358116, No Iterations 3
smoothSolver:  Solving for Uy, Initial residual = 0.422531, Final residual = 0.0128385, No Iterations 2
smoothSolver:  Solving for Uz, Initial residual = 0.421293, Final residual = 0.0157629, No Iterations 2
GAMG:  Solving for p, Initial residual = 0.00952262, Final residual = 2.61685e-05, No Iterations 3
time step continuity errors : sum local = 0.00244763, global = 0.000451441, cumulative = 0.000109103
smoothSolver:  Solving for omega, Initial residual = 0.00674519, Final residual = 0.000118459, No Iterations 2
smoothSolver:  Solving for k, Initial residual = 0.202161, Final residual = 0.00356113, No Iterations 2
ExecutionTime = 0.14 s  ClockTime = 0 s

forceCoeffs forceCoeffs1 write:
    Coefficient	Total	Pressure	Viscous	Internal
    Cd:	0	0	0	0
    Cd(f):	0	0	0	0
    Cd(r):	0	0	0	0
    Cl:	0	0	0	0
    Cl(f):	0	0	0	0
    Cl(r):	0	0	0	0
    CmPitch:	0	0	0	0
    CmRoll:	0	0	0	0
    CmYaw:	0	0	0	0
    Cs:	0	0	0	0
    Cs(f):	0	0	0	0
    Cs(r):	0	0	0	0

    writing force and moment coefficient files.

Time = 4

smoothSolver:  Solving for Ux, Initial residual = 0.581204, Final residual = 0.0212832, No Iterations 3
smoothSolver:  Solving for Uy, Initial residual = 0.262339, Final residual = 0.00482681, No Iterations 2
smoothSolver:  Solving for Uz, Initial residual = 0.305899, Final residual = 0.0172288, No Iterations 2
GAMG:  Solving for p, Initial residual = 0.0072211, Final residual = 1.14646e-05, No Iterations 3
time step continuity errors : sum local = 0.00115271, global = 1.80558e-05, cumulative = 0.000127159
smoothSolver:  Solving for omega, Initial residual = 0.00583433, Final residual = 8.12174e-05, No Iterations 2
smoothSolver:  Solving for k, Initial residual = 0.139261, Final residual = 0.00207835, No Iterations 2
ExecutionTime = 0.15 s  ClockTime = 0 s

forceCoeffs forceCoeffs1 write:
    Coefficient	Total	Pressure	Viscous	Internal
    Cd:	0	0	0	0
    Cd(f):	0	0	0	0
    Cd(r):	0	0	0	0
    Cl:	0	0	0	0
    Cl(f):	0	0	0	0
    Cl(r):	0	0	0	0
    CmPitch:	0	0	0	0
    CmRoll:	0	0	0	0
    CmYaw:	0	0	0	0
    Cs:	0	0	0	0
    Cs(f):	0	0	0	0
    Cs(r):	0	0	0	0

    writing force and moment coefficient files.

Time = 5

smoothSolver:  Solving for Ux, Initial residual = 0.582627, Final residual = 0.0530766, No Iterations 2
smoothSolver:  Solving for Uy, Initial residual = 0.20833, Final residual = 0.00692874, No Iterations 2
smoothSolver:  Solving for Uz, Initial residual = 0.227614, Final residual = 0.0133691, No Iterations 2
GAMG:  Solving for p, Initial residual = 0.00652818, Final residual = 1.38367e-05, No Iterations 3
time step continuity errors : sum local = 0.00138312, global = -0.000440783, cumulative = -0.000313624
smoothSolver:  Solving for omega, Initial residual = 0.00463765, Final residual = 5.32474e-05, No Iterations 2
smoothSolver:  Solving for k, Initial residual = 0.0991459, Final residual = 0.00124077, No Iterations 2
ExecutionTime = 0.16 s  ClockTime = 0 s

forceCoeffs forceCoeffs1 write:
    Coefficient	Total	Pressure	Viscous	Internal
    Cd:	0	0	0	0
    Cd(f):	0	0	0	0
    Cd(r):	0	0	0	0
    Cl:	0	0	0	0
    Cl(f):	0	0	0	0
    Cl(r):	0	0	0	0
    CmPitch:	0	0	0	0
    CmRoll:	0	0	0	0
    CmYaw:	0	0	0	0
    Cs:	0	0	0	0
    Cs(f):	0	0	0	0
    Cs(r):	0	0	0	0

    writing force and moment coefficient files.

Time = 6

smoothSolver:  Solving for Ux, Initial residual = 0.611915, Final residual = 0.034598, No Iterations 2
smoothSolver:  Solving for Uy, Initial residual = 0.532914, Final residual = 0.0187134, No Iterations 2
smoothSolver:  Solving for Uz, Initial residual = 0.466719, Final residual = 0.0181779, No Iterations 2
GAMG:  Solving for p, Initial residual = 0.00624308, Final residual = 1.14988e-05, No Iterations 3
time step continuity errors : sum local = 0.001114, global = -0.000273877, cumulative = -0.000587501
smoothSolver:  Solving for omega, Initial residual = 0.00351143, Final residual = 3.59941e-05, No Iterations 2
smoothSolver:  Solving for k, Initial residual = 0.0704021, Final residual = 0.000785397, No Iterations 2
ExecutionTime = 0.16 s  ClockTime = 0 s

forceCoeffs forceCoeffs1 write:
    Coefficient	Total	Pressure	Viscous	Internal
    Cd:	0	0	0	0
    Cd(f):	0	0	0	0
    Cd(r):	0	0	0	0
    Cl:	0	0	0	0
    Cl(f):	0	0	0	0
    Cl(r):	0	0	0	0
    CmPitch:	0	0	0	0
    CmRoll:	0	0	0	0
    CmYaw:	0	0	0	0
    Cs:	0	0	0	0
    Cs(f):	0	0	0	0
    Cs(r):	0	0	0	0

    writing force and moment coefficient files.

Time = 7

smoothSolver:  Solving for Ux, Initial residual = 0.62863, Final residual = 0.0429795, No Iterations 2
smoothSolver:  Solving for Uy, Initial residual = 0.585601, Final residual = 0.0181755, No Iterations 2
smoothSolver:  Solving for Uz, Initial residual = 0.466633, Final residual = 0.0178266, No Iterations 2
GAMG:  Solving for p, Initial residual = 0.00590004, Final residual = 7.18514e-06, No Iterations 3
time step continuity errors : sum local = 0.000678481, global = -0.000146172, cumulative = -0.000733673
smoothSolver:  Solving for omega, Initial residual = 0.00266125, Final residual = 2.51804e-05, No Iterations 2
smoothSolver:  Solving for k, Initial residual = 0.0507747, Final residual = 0.000525855, No Iterations 2
ExecutionTime = 0.16 s  ClockTime = 0 s

forceCoeffs forceCoeffs1 write:
    Coefficient	Total	Pressure	Viscous	Internal
    Cd:	0	0	0	0
    Cd(f):	0	0	0	0
    Cd(r):	0	0	0	0
    Cl:	0	0	0	0
    Cl(f):	0	0	0	0
    Cl(r):	0	0	0	0
    CmPitch:	0	0	0	0
    CmRoll:	0	0	0	0
    CmYaw:	0	0	0	0
    Cs:	0	0	0	0
    Cs(f):	0	0	0	0
    Cs(r):	0	0	0	0

    writing force and moment coefficient files.

Time = 8

smoothSolver:  Solving for Ux, Initial residual = 0.62031, Final residual = 0.048941, No Iterations 2
smoothSolver:  Solving for Uy, Initial residual = 0.517523, Final residual = 0.01187, No Iterations 2
smoothSolver:  Solving for Uz, Initial residual = 0.427664, Final residual = 0.0139202, No Iterations 2
GAMG:  Solving for p, Initial residual = 0.00537484, Final residual = 8.80496e-06, No Iterations 3
time step continuity errors : sum local = 0.000819312, global = -9.50722e-05, cumulative = -0.000828745
smoothSolver:  Solving for omega, Initial residual = 0.00200427, Final residual = 1.71673e-05, No Iterations 2
smoothSolver:  Solving for k, Initial residual = 0.03723, Final residual = 0.000350097, No Iterations 2
ExecutionTime = 0.17 s  ClockTime = 0 s

forceCoeffs forceCoeffs1 write:
    Coefficient	Total	Pressure	Viscous	Internal
    Cd:	0	0	0	0
    Cd(f):	0	0	0	0
    Cd(r):	0	0	0	0
    Cl:	0	0	0	0
    Cl(f):	0	0	0	0
    Cl(r):	0	0	0	0
    CmPitch:	0	0	0	0
    CmRoll:	0	0	0	0
    CmYaw:	0	0	0	0
    Cs:	0	0	0	0
    Cs(f):	0	0	0	0
    Cs(r):	0	0	0	0

    writing force and moment coefficient files.

Time = 9

smoothSolver:  Solving for Ux, Initial residual = 0.580388, Final residual = 0.053522, No Iterations 2
smoothSolver:  Solving for Uy, Initial residual = 0.464744, Final residual = 0.00771324, No Iterations 2
smoothSolver:  Solving for Uz, Initial residual = 0.430962, Final residual = 0.0145869, No Iterations 2
GAMG:  Solving for p, Initial residual = 0.00480184, Final residual = 9.67197e-06, No Iterations 3
time step continuity errors : sum local = 0.000895827, global = 2.93967e-05, cumulative = -0.000799349
smoothSolver:  Solving for omega, Initial residual = 0.00161444, Final residual = 1.02806e-05, No Iterations 2
smoothSolver:  Solving for k, Initial residual = 0.0290442, Final residual = 0.00022398, No Iterations 2
ExecutionTime = 0.18 s  ClockTime = 0 s

forceCoeffs forceCoeffs1 write:
    Coefficient	Total	Pressure	Viscous	Internal
    Cd:	0	0	0	0
    Cd(f):	0	0	0	0
    Cd(r):	0	0	0	0
    Cl:	0	0	0	0
    Cl(f):	0	0	0	0
    Cl(r):	0	0	0	0
    CmPitch:	0	0	0	0
    CmRoll:	0	0	0	0
    CmYaw:	0	0	0	0
    Cs:	0	0	0	0
    Cs(f):	0	0	0	0
    Cs(r):	0	0	0	0

    writing force and moment coefficient files.

Time = 10

smoothSolver:  Solving for Ux, Initial residual = 0.536358, Final residual = 0.0103236, No Iterations 3
smoothSolver:  Solving for Uy, Initial residual = 0.457032, Final residual = 0.00944807, No Iterations 2
smoothSolver:  Solving for Uz, Initial residual = 0.431281, Final residual = 0.0168759, No Iterations 2
GAMG:  Solving for p, Initial residual = 0.00415387, Final residual = 8.89025e-06, No Iterations 3
time step continuity errors : sum local = 0.000825426, global = 5.31959e-05, cumulative = -0.000746153
smoothSolver:  Solving for omega, Initial residual = 0.00150539, Final residual = 1.21104e-05, No Iterations 2
smoothSolver:  Solving for k, Initial residual = 0.0255566, Final residual = 0.000257993, No Iterations 2
ExecutionTime = 0.19 s  ClockTime = 0 s

forceCoeffs forceCoeffs1 write:
    Coefficient	Total	Pressure	Viscous	Internal
    Cd:	0	0	0	0
    Cd(f):	0	0	0	0
    Cd(r):	0	0	0	0
    Cl:	0	0	0	0
    Cl(f):	0	0	0	0
    Cl(r):	0	0	0	0
    CmPitch:	0	0	0	0
    CmRoll:	0	0	0	0
    CmYaw:	0	0	0	0
    Cs:	0	0	0	0
    Cs(f):	0	0	0	0
    Cs(r):	0	0	0	0

    writing force and moment coefficient files.

Time = 11

smoothSolver:  Solving for Ux, Initial residual = 0.518959, Final residual = 0.00968729, No Iterations 3
smoothSolver:  Solving for Uy, Initial residual = 0.453939, Final residual = 0.0202958, No Iterations 2
smoothSolver:  Solving for Uz, Initial residual = 0.504399, Final residual = 0.029856, No Iterations 2
GAMG:  Solving for p, Initial residual = 0.00385667, Final residual = 7.88729e-06, No Iterations 3
time step continuity errors : sum local = 0.000734485, global = 0.000128643, cumulative = -0.00061751
smoothSolver:  Solving for omega, Initial residual = 0.00157383, Final residual = 2.56021e-05, No Iterations 2
smoothSolver:  Solving for k, Initial residual = 0.0205521, Final residual = 0.000327436, No Iterations 2
ExecutionTime = 0.19 s  ClockTime = 0 s

forceCoeffs forceCoeffs1 write:
    Coefficient	Total	Pressure	Viscous	Internal
    Cd:	0	0	0	0
    Cd(f):	0	0	0	0
    Cd(r):	0	0	0	0
    Cl:	0	0	0	0
    Cl(f):	0	0	0	0
    Cl(r):	0	0	0	0
    CmPitch:	0	0	0	0
    CmRoll:	0	0	0	0
    CmYaw:	0	0	0	0
    Cs:	0	0	0	0
    Cs(f):	0	0	0	0
    Cs(r):	0	0	0	0

    writing force and moment coefficient files.

Time = 12

smoothSolver:  Solving for Ux, Initial residual = 0.493379, Final residual = 0.0084832, No Iterations 3
smoothSolver:  Solving for Uy, Initial residual = 0.522759, Final residual = 0.0270735, No Iterations 2
smoothSolver:  Solving for Uz, Initial residual = 0.543785, Final residual = 0.0369648, No Iterations 2
GAMG:  Solving for p, Initial residual = 0.00356827, Final residual = 6.40383e-06, No Iterations 3
time step continuity errors : sum local = 0.000599928, global = 0.000165293, cumulative = -0.000452217
smoothSolver:  Solving for omega, Initial residual = 0.00142043, Final residual = 3.16558e-05, No Iterations 2
smoothSolver:  Solving for k, Initial residual = 0.0145619, Final residual = 0.000262338, No Iterations 2
ExecutionTime = 0.19 s  ClockTime = 0 s

forceCoeffs forceCoeffs1 write:
    Coefficient	Total	Pressure	Viscous	Internal
    Cd:	0	0	0	0
    Cd(f):	0	0	0	0
    Cd(r):	0	0	0	0
    Cl:	0	0	0	0
    Cl(f):	0	0	0	0
    Cl(r):	0	0	0	0
    CmPitch:	0	0	0	0
    CmRoll:	0	0	0	0
    CmYaw:	0	0	0	0
    Cs:	0	0	0	0
    Cs(f):	0	0	0	0
    Cs(r):	0	0	0	0

    writing force and moment coefficient files.

Time = 13

smoothSolver:  Solving for Ux, Initial residual = 0.467538, Final residual = 0.0457647, No Iterations 2
smoothSolver:  Solving for Uy, Initial residual = 0.550209, Final residual = 0.0283838, No Iterations 2
smoothSolver:  Solving for Uz, Initial residual = 0.530233, Final residual = 0.0330441, No Iterations 2
GAMG:  Solving for p, Initial residual = 0.00341406, Final residual = 6.1376e-06, No Iterations 3
time step continuity errors : sum local = 0.000579231, global = 0.000218642, cumulative = -0.000233575
smoothSolver:  Solving for omega, Initial residual = 0.0012244, Final residual = 3.11111e-05, No Iterations 2
smoothSolver:  Solving for k, Initial residual = 0.011407, Final residual = 0.000193812, No Iterations 2
ExecutionTime = 0.2 s  ClockTime = 0 s

forceCoeffs forceCoeffs1 write:
    Coefficient	Total	Pressure	Viscous	Internal
    Cd:	0	0	0	0
    Cd(f):	0	0	0	0
    Cd(r):	0	0	0	0
    Cl:	0	0	0	0
    Cl(f):	0	0	0	0
    Cl(r):	0	0	0	0
    CmPitch:	0	0	0	0
    CmRoll:	0	0	0	0
    CmYaw:	0	0	0	0
    Cs:	0	0	0	0
    Cs(f):	0	0	0	0
    Cs(r):	0	0	0	0

    writing force and moment coefficient files.

Time = 14

smoothSolver:  Solving for Ux, Initial residual = 0.447849, Final residual = 0.0371025, No Iterations 2
smoothSolver:  Solving for Uy, Initial residual = 0.518316, Final residual = 0.0170925, No Iterations 2
smoothSolver:  Solving for Uz, Initial residual = 0.446392, Final residual = 0.017614, No Iterations 2
GAMG:  Solving for p, Initial residual = 0.00303571, Final residual = 2.72898e-05, No Iterations 2
time step continuity errors : sum local = 0.00260006, global = 0.000403859, cumulative = 0.000170285
smoothSolver:  Solving for omega, Initial residual = 0.000985168, Final residual = 2.57497e-05, No Iterations 2
smoothSolver:  Solving for k, Initial residual = 0.00804049, Final residual = 0.000132891, No Iterations 2
ExecutionTime = 0.21 s  ClockTime = 0 s

forceCoeffs forceCoeffs1 write:
    Coefficient	Total	Pressure	Viscous	Internal
    Cd:	0	0	0	0
    Cd(f):	0	0	0	0
    Cd(r):	0	0	0	0
    Cl:	0	0	0	0
    Cl(f):	0	0	0	0
    Cl(r):	0	0	0	0
    CmPitch:	0	0	0	0
    CmRoll:	0	0	0	0
    CmYaw:	0	0	0	0
    Cs:	0	0	0	0
    Cs(f):	0	0	0	0
    Cs(r):	0	0	0	0

    writing force and moment coefficient files.

Time = 15

smoothSolver:  Solving for Ux, Initial residual = 0.418465, Final residual = 0.0290446, No Iterations 2
smoothSolver:  Solving for Uy, Initial residual = 0.485103, Final residual = 0.0160851, No Iterations 2
smoothSolver:  Solving for Uz, Initial residual = 0.440975, Final residual = 0.0142828, No Iterations 2
GAMG:  Solving for p, Initial residual = 0.00278664, Final residual = 1.63276e-05, No Iterations 2
time step continuity errors : sum local = 0.00156635, global = 0.000279894, cumulative = 0.000450179
smoothSolver:  Solving for omega, Initial residual = 0.000830725, Final residual = 1.8977e-05, No Iterations 2
smoothSolver:  Solving for k, Initial residual = 0.00580105, Final residual = 8.26812e-05, No Iterations 2
ExecutionTime = 0.21 s  ClockTime = 0 s

forceCoeffs forceCoeffs1 write:
    Coefficient	Total	Pressure	Viscous	Internal
    Cd:	0	0	0	0
    Cd(f):	0	0	0	0
    Cd(r):	0	0	0	0
    Cl:	0	0	0	0
    Cl(f):	0	0	0	0
    Cl(r):	0	0	0	0
    CmPitch:	0	0	0	0
    CmRoll:	0	0	0	0
    CmYaw:	0	0	0	0
    Cs:	0	0	0	0
    Cs(f):	0	0	0	0
    Cs(r):	0	0	0	0

    writing force and moment coefficient files.

Time = 16

smoothSolver:  Solving for Ux, Initial residual = 0.394342, Final residual = 0.0224348, No Iterations 2
smoothSolver:  Solving for Uy, Initial residual = 0.405375, Final residual = 0.0131868, No Iterations 2
smoothSolver:  Solving for Uz, Initial residual = 0.413077, Final residual = 0.0136549, No Iterations 2
GAMG:  Solving for p, Initial residual = 0.00253413, Final residual = 1.83869e-05, No Iterations 2
time step continuity errors : sum local = 0.00177121, global = -0.000301419, cumulative = 0.00014876
smoothSolver:  Solving for omega, Initial residual = 0.000744369, Final residual = 1.33828e-05, No Iterations 2
smoothSolver:  Solving for k, Initial residual = 0.00471919, Final residual = 5.64428e-05, No Iterations 2
ExecutionTime = 0.21 s  ClockTime = 0 s

forceCoeffs forceCoeffs1 write:
    Coefficient	Total	Pressure	Viscous	Internal
    Cd:	0	0	0	0
    Cd(f):	0	0	0	0
    Cd(r):	0	0	0	0
    Cl:	0	0	0	0
    Cl(f):	0	0	0	0
    Cl(r):	0	0	0	0
    CmPitch:	0	0	0	0
    CmRoll:	0	0	0	0
    CmYaw:	0	0	0	0
    Cs:	0	0	0	0
    Cs(f):	0	0	0	0
    Cs(r):	0	0	0	0

    writing force and moment coefficient files.

Time = 17

smoothSolver:  Solving for Ux, Initial residual = 0.376658, Final residual = 0.016063, No Iterations 2
smoothSolver:  Solving for Uy, Initial residual = 0.354969, Final residual = 0.0113005, No Iterations 2
smoothSolver:  Solving for Uz, Initial residual = 0.393839, Final residual = 0.0133864, No Iterations 2
GAMG:  Solving for p, Initial residual = 0.0022795, Final residual = 1.94946e-05, No Iterations 2
time step continuity errors : sum local = 0.00188178, global = -0.000337761, cumulative = -0.000189001
smoothSolver:  Solving for omega, Initial residual = 0.000659942, Final residual = 9.24907e-06, No Iterations 2
smoothSolver:  Solving for k, Initial residual = 0.00367871, Final residual = 3.75337e-05, No Iterations 2
ExecutionTime = 0.22 s  ClockTime = 0 s

forceCoeffs forceCoeffs1 write:
    Coefficient	Total	Pressure	Viscous	Internal
    Cd:	0	0	0	0
    Cd(f):	0	0	0	0
    Cd(r):	0	0	0	0
    Cl:	0	0	0	0
    Cl(f):	0	0	0	0
    Cl(r):	0	0	0	0
    CmPitch:	0	0	0	0
    CmRoll:	0	0	0	0
    CmYaw:	0	0	0	0
    Cs:	0	0	0	0
    Cs(f):	0	0	0	0
    Cs(r):	0	0	0	0

    writing force and moment coefficient files.

Time = 18

smoothSolver:  Solving for Ux, Initial residual = 0.353419, Final residual = 0.0101933, No Iterations 2
smoothSolver:  Solving for Uy, Initial residual = 0.352831, Final residual = 0.0118503, No Iterations 2
smoothSolver:  Solving for Uz, Initial residual = 0.38229, Final residual = 0.0124801, No Iterations 2
GAMG:  Solving for p, Initial residual = 0.00212942, Final residual = 2.04927e-05, No Iterations 2
time step continuity errors : sum local = 0.00197737, global = -0.000180594, cumulative = -0.000369595
smoothSolver:  Solving for omega, Initial residual = 0.000550611, Final residual = 6.06575e-06, No Iterations 2
smoothSolver:  Solving for k, Initial residual = 0.00275241, Final residual = 2.21862e-05, No Iterations 2
ExecutionTime = 0.22 s  ClockTime = 0 s

forceCoeffs forceCoeffs1 write:
    Coefficient	Total	Pressure	Viscous	Internal
    Cd:	0	0	0	0
    Cd(f):	0	0	0	0
    Cd(r):	0	0	0	0
    Cl:	0	0	0	0
    Cl(f):	0	0	0	0
    Cl(r):	0	0	0	0
    CmPitch:	0	0	0	0
    CmRoll:	0	0	0	0
    CmYaw:	0	0	0	0
    Cs:	0	0	0	0
    Cs(f):	0	0	0	0
    Cs(r):	0	0	0	0

    writing force and moment coefficient files.

Time = 19

smoothSolver:  Solving for Ux, Initial residual = 0.328174, Final residual = 0.00725503, No Iterations 2
smoothSolver:  Solving for Uy, Initial residual = 0.375736, Final residual = 0.0117301, No Iterations 2
smoothSolver:  Solving for Uz, Initial residual = 0.38357, Final residual = 0.0116538, No Iterations 2
GAMG:  Solving for p, Initial residual = 0.00198661, Final residual = 3.21747e-06, No Iterations 3
time step continuity errors : sum local = 0.000309857, global = -9.28221e-05, cumulative = -0.000462417
smoothSolver:  Solving for omega, Initial residual = 0.000463658, Final residual = 3.92814e-06, No Iterations 2
smoothSolver:  Solving for k, Initial residual = 0.00223522, Final residual = 0.000211853, No Iterations 1
ExecutionTime = 0.23 s  ClockTime = 0 s

forceCoeffs forceCoeffs1 write:
    Coefficient	Total	Pressure	Viscous	Internal
    Cd:	0	0	0	0
    Cd(f):	0	0	0	0
    Cd(r):	0	0	0	0
    Cl:	0	0	0	0
    Cl(f):	0	0	0	0
    Cl(r):	0	0	0	0
    CmPitch:	0	0	0	0
    CmRoll:	0	0	0	0
    CmYaw:	0	0	0	0
    Cs:	0	0	0	0
    Cs(f):	0	0	0	0
    Cs(r):	0	0	0	0

    writing force and moment coefficient files.

Time = 20

smoothSolver:  Solving for Ux, Initial residual = 0.308651, Final residual = 0.0307086, No Iterations 1
smoothSolver:  Solving for Uy, Initial residual = 0.400589, Final residual = 0.0105727, No Iterations 2
smoothSolver:  Solving for Uz, Initial residual = 0.38253, Final residual = 0.0109014, No Iterations 2
GAMG:  Solving for p, Initial residual = 0.00187717, Final residual = 2.27411e-06, No Iterations 3
time step continuity errors : sum local = 0.000218386, global = -9.27207e-05, cumulative = -0.000555138
smoothSolver:  Solving for omega, Initial residual = 0.000369882, Final residual = 3.64644e-06, No Iterations 2
smoothSolver:  Solving for k, Initial residual = 0.00171085, Final residual = 1.20674e-05, No Iterations 2
ExecutionTime = 0.24 s  ClockTime = 0 s

forceCoeffs forceCoeffs1 write:
    Coefficient	Total	Pressure	Viscous	Internal
    Cd:	0	0	0	0
    Cd(f):	0	0	0	0
    Cd(r):	0	0	0	0
    Cl:	0	0	0	0
    Cl(f):	0	0	0	0
    Cl(r):	0	0	0	0
    CmPitch:	0	0	0	0
    CmRoll:	0	0	0	0
    CmYaw:	0	0	0	0
    Cs:	0	0	0	0
    Cs(f):	0	0	0	0
    Cs(r):	0	0	0	0

    writing force and moment coefficient files.

Time = 21

smoothSolver:  Solving for Ux, Initial residual = 0.283015, Final residual = 0.00897721, No Iterations 2
smoothSolver:  Solving for Uy, Initial residual = 0.622412, Final residual = 0.0292794, No Iterations 2
smoothSolver:  Solving for Uz, Initial residual = 0.477305, Final residual = 0.0225038, No Iterations 2
GAMG:  Solving for p, Initial residual = 0.00174898, Final residual = 2.65863e-06, No Iterations 3
time step continuity errors : sum local = 0.000254723, global = -0.000105236, cumulative = -0.000660373
smoothSolver:  Solving for omega, Initial residual = 0.000281831, Final residual = 2.27638e-06, No Iterations 2
smoothSolver:  Solving for k, Initial residual = 0.00111475, Final residual = 0.000105938, No Iterations 1
ExecutionTime = 0.24 s  ClockTime = 0 s

forceCoeffs forceCoeffs1 write:
    Coefficient	Total	Pressure	Viscous	Internal
    Cd:	0	0	0	0
    Cd(f):	0	0	0	0
    Cd(r):	0	0	0	0
    Cl:	0	0	0	0
    Cl(f):	0	0	0	0
    Cl(r):	0	0	0	0
    CmPitch:	0	0	0	0
    CmRoll:	0	0	0	0
    CmYaw:	0	0	0	0
    Cs:	0	0	0	0
    Cs(f):	0	0	0	0
    Cs(r):	0	0	0	0

    writing force and moment coefficient files.

Time = 22

smoothSolver:  Solving for Ux, Initial residual = 0.266095, Final residual = 0.009126, No Iterations 2
smoothSolver:  Solving for Uy, Initial residual = 0.410242, Final residual = 0.0113841, No Iterations 2
smoothSolver:  Solving for Uz, Initial residual = 0.330497, Final residual = 0.0109439, No Iterations 2
GAMG:  Solving for p, Initial residual = 0.00163324, Final residual = 2.25891e-06, No Iterations 3
time step continuity errors : sum local = 0.000215848, global = -8.89088e-05, cumulative = -0.000749282
smoothSolver:  Solving for omega, Initial residual = 0.000218457, Final residual = 1.34737e-06, No Iterations 2
smoothSolver:  Solving for k, Initial residual = 0.000762543, Final residual = 7.1138e-05, No Iterations 1
ExecutionTime = 0.25 s  ClockTime = 0 s

forceCoeffs forceCoeffs1 write:
    Coefficient	Total	Pressure	Viscous	Internal
    Cd:	0	0	0	0
    Cd(f):	0	0	0	0
    Cd(r):	0	0	0	0
    Cl:	0	0	0	0
    Cl(f):	0	0	0	0
    Cl(r):	0	0	0	0
    CmPitch:	0	0	0	0
    CmRoll:	0	0	0	0
    CmYaw:	0	0	0	0
    Cs:	0	0	0	0
    Cs(f):	0	0	0	0
    Cs(r):	0	0	0	0

    writing force and moment coefficient files.

Time = 23

smoothSolver:  Solving for Ux, Initial residual = 0.252223, Final residual = 0.00920433, No Iterations 2
smoothSolver:  Solving for Uy, Initial residual = 0.435639, Final residual = 0.00919866, No Iterations 2
smoothSolver:  Solving for Uz, Initial residual = 0.379406, Final residual = 0.00911942, No Iterations 2
GAMG:  Solving for p, Initial residual = 0.00153054, Final residual = 1.1977e-05, No Iterations 2
time step continuity errors : sum local = 0.00114193, global = 0.000112297, cumulative = -0.000636985
smoothSolver:  Solving for omega, Initial residual = 0.000156915, Final residual = 7.73674e-07, No Iterations 2
smoothSolver:  Solving for k, Initial residual = 0.000544144, Final residual = 5.79362e-06, No Iterations 2
ExecutionTime = 0.25 s  ClockTime = 0 s

forceCoeffs forceCoeffs1 write:
    Coefficient	Total	Pressure	Viscous	Internal
    Cd:	0	0	0	0
    Cd(f):	0	0	0	0
    Cd(r):	0	0	0	0
    Cl:	0	0	0	0
    Cl(f):	0	0	0	0
    Cl(r):	0	0	0	0
    CmPitch:	0	0	0	0
    CmRoll:	0	0	0	0
    CmYaw:	0	0	0	0
    Cs:	0	0	0	0
    Cs(f):	0	0	0	0
    Cs(r):	0	0	0	0

    writing force and moment coefficient files.

Time = 24

smoothSolver:  Solving for Ux, Initial residual = 0.237103, Final residual = 0.0100036, No Iterations 2
smoothSolver:  Solving for Uy, Initial residual = 0.480036, Final residual = 0.0141299, No Iterations 2
smoothSolver:  Solving for Uz, Initial residual = 0.371797, Final residual = 0.00891463, No Iterations 2
GAMG:  Solving for p, Initial residual = 0.00140862, Final residual = 7.26194e-06, No Iterations 2
time step continuity errors : sum local = 0.000691052, global = 7.12508e-05, cumulative = -0.000565735
smoothSolver:  Solving for omega, Initial residual = 0.000109786, Final residual = 9.76769e-06, No Iterations 1
smoothSolver:  Solving for k, Initial residual = 0.000388252, Final residual = 4.69858e-06, No Iterations 2
ExecutionTime = 0.25 s  ClockTime = 0 s

forceCoeffs forceCoeffs1 write:
    Coefficient	Total	Pressure	Viscous	Internal
    Cd:	0	0	0	0
    Cd(f):	0	0	0	0
    Cd(r):	0	0	0	0
    Cl:	0	0	0	0
    Cl(f):	0	0	0	0
    Cl(r):	0	0	0	0
    CmPitch:	0	0	0	0
    CmRoll:	0	0	0	0
    CmYaw:	0	0	0	0
    Cs:	0	0	0	0
    Cs(f):	0	0	0	0
    Cs(r):	0	0	0	0

    writing force and moment coefficient files.

Time = 25

smoothSolver:  Solving for Ux, Initial residual = 0.227383, Final residual = 0.0107914, No Iterations 2
smoothSolver:  Solving for Uy, Initial residual = 0.483442, Final residual = 0.014084, No Iterations 2
smoothSolver:  Solving for Uz, Initial residual = 0.346592, Final residual = 0.00794673, No Iterations 2
GAMG:  Solving for p, Initial residual = 0.00127737, Final residual = 4.42515e-06, No Iterations 2
time step continuity errors : sum local = 0.000420421, global = -1.27444e-05, cumulative = -0.000578479
smoothSolver:  Solving for omega, Initial residual = 8.38592e-05, Final residual = 6.97305e-06, No Iterations 1
smoothSolver:  Solving for k, Initial residual = 0.000363049, Final residual = 4.22526e-06, No Iterations 2
ExecutionTime = 0.26 s  ClockTime = 0 s

forceCoeffs forceCoeffs1 write:
    Coefficient	Total	Pressure	Viscous	Internal
    Cd:	0	0	0	0
    Cd(f):	0	0	0	0
    Cd(r):	0	0	0	0
    Cl:	0	0	0	0
    Cl(f):	0	0	0	0
    Cl(r):	0	0	0	0
    CmPitch:	0	0	0	0
    CmRoll:	0	0	0	0
    CmYaw:	0	0	0	0
    Cs:	0	0	0	0
    Cs(f):	0	0	0	0
    Cs(r):	0	0	0	0

    writing force and moment coefficient files.

Time = 26

smoothSolver:  Solving for Ux, Initial residual = 0.216315, Final residual = 0.0111431, No Iterations 2
smoothSolver:  Solving for Uy, Initial residual = 0.472509, Final residual = 0.0121531, No Iterations 2
smoothSolver:  Solving for Uz, Initial residual = 0.317473, Final residual = 0.00696211, No Iterations 2
GAMG:  Solving for p, Initial residual = 0.00116882, Final residual = 3.56215e-06, No Iterations 2
time step continuity errors : sum local = 0.000338101, global = -3.79718e-05, cumulative = -0.000616451
smoothSolver:  Solving for omega, Initial residual = 6.24895e-05, Final residual = 5.75645e-06, No Iterations 1
smoothSolver:  Solving for k, Initial residual = 0.00030559, Final residual = 4.12564e-06, No Iterations 2
ExecutionTime = 0.26 s  ClockTime = 0 s

forceCoeffs forceCoeffs1 write:
    Coefficient	Total	Pressure	Viscous	Internal
    Cd:	0	0	0	0
    Cd(f):	0	0	0	0
    Cd(r):	0	0	0	0
    Cl:	0	0	0	0
    Cl(f):	0	0	0	0
    Cl(r):	0	0	0	0
    CmPitch:	0	0	0	0
    CmRoll:	0	0	0	0
    CmYaw:	0	0	0	0
    Cs:	0	0	0	0
    Cs(f):	0	0	0	0
    Cs(r):	0	0	0	0

    writing force and moment coefficient files.

Time = 27

smoothSolver:  Solving for Ux, Initial residual = 0.202797, Final residual = 0.0111289, No Iterations 2
smoothSolver:  Solving for Uy, Initial residual = 0.45064, Final residual = 0.0103305, No Iterations 2
smoothSolver:  Solving for Uz, Initial residual = 0.290209, Final residual = 0.00645348, No Iterations 2
GAMG:  Solving for p, Initial residual = 0.0010791, Final residual = 3.77681e-06, No Iterations 2
time step continuity errors : sum local = 0.000358365, global = 6.86436e-05, cumulative = -0.000547807
smoothSolver:  Solving for omega, Initial residual = 4.86691e-05, Final residual = 3.88135e-07, No Iterations 2
smoothSolver:  Solving for k, Initial residual = 0.000262914, Final residual = 4.27018e-06, No Iterations 2
ExecutionTime = 0.27 s  ClockTime = 0 s

forceCoeffs forceCoeffs1 write:
    Coefficient	Total	Pressure	Viscous	Internal
    Cd:	0	0	0	0
    Cd(f):	0	0	0	0
    Cd(r):	0	0	0	0
    Cl:	0	0	0	0
    Cl(f):	0	0	0	0
    Cl(r):	0	0	0	0
    CmPitch:	0	0	0	0
    CmRoll:	0	0	0	0
    CmYaw:	0	0	0	0
    Cs:	0	0	0	0
    Cs(f):	0	0	0	0
    Cs(r):	0	0	0	0

    writing force and moment coefficient files.

Time = 28

smoothSolver:  Solving for Ux, Initial residual = 0.188838, Final residual = 0.0109246, No Iterations 2
smoothSolver:  Solving for Uy, Initial residual = 0.430703, Final residual = 0.00955408, No Iterations 2
smoothSolver:  Solving for Uz, Initial residual = 0.26632, Final residual = 0.00653944, No Iterations 2
GAMG:  Solving for p, Initial residual = 0.000996789, Final residual = 5.72881e-06, No Iterations 2
time step continuity errors : sum local = 0.00054356, global = 2.90669e-05, cumulative = -0.00051874
smoothSolver:  Solving for omega, Initial residual = 3.85871e-05, Final residual = 4.68523e-07, No Iterations 2
smoothSolver:  Solving for k, Initial residual = 0.000246685, Final residual = 4.67061e-06, No Iterations 2
ExecutionTime = 0.27 s  ClockTime = 0 s

forceCoeffs forceCoeffs1 write:
    Coefficient	Total	Pressure	Viscous	Internal
    Cd:	0	0	0	0
    Cd(f):	0	0	0	0
    Cd(r):	0	0	0	0
    Cl:	0	0	0	0
    Cl(f):	0	0	0	0
    Cl(r):	0	0	0	0
    CmPitch:	0	0	0	0
    CmRoll:	0	0	0	0
    CmYaw:	0	0	0	0
    Cs:	0	0	0	0
    Cs(f):	0	0	0	0
    Cs(r):	0	0	0	0

    writing force and moment coefficient files.

Time = 29

smoothSolver:  Solving for Ux, Initial residual = 0.174532, Final residual = 0.0104902, No Iterations 2
smoothSolver:  Solving for Uy, Initial residual = 0.416123, Final residual = 0.00952643, No Iterations 2
smoothSolver:  Solving for Uz, Initial residual = 0.245096, Final residual = 0.00684537, No Iterations 2
GAMG:  Solving for p, Initial residual = 0.000908938, Final residual = 6.63977e-06, No Iterations 2
time step continuity errors : sum local = 0.000630232, global = 1.1427e-05, cumulative = -0.000507313
smoothSolver:  Solving for omega, Initial residual = 3.31177e-05, Final residual = 5.6337e-07, No Iterations 2
smoothSolver:  Solving for k, Initial residual = 0.000235765, Final residual = 5.19191e-06, No Iterations 2
ExecutionTime = 0.27 s  ClockTime = 0 s

forceCoeffs forceCoeffs1 write:
    Coefficient	Total	Pressure	Viscous	Internal
    Cd:	0	0	0	0
    Cd(f):	0	0	0	0
    Cd(r):	0	0	0	0
    Cl:	0	0	0	0
    Cl(f):	0	0	0	0
    Cl(r):	0	0	0	0
    CmPitch:	0	0	0	0
    CmRoll:	0	0	0	0
    CmYaw:	0	0	0	0
    Cs:	0	0	0	0
    Cs(f):	0	0	0	0
    Cs(r):	0	0	0	0

    writing force and moment coefficient files.

Time = 30

smoothSolver:  Solving for Ux, Initial residual = 0.161926, Final residual = 0.00985449, No Iterations 2
smoothSolver:  Solving for Uy, Initial residual = 0.403282, Final residual = 0.00917024, No Iterations 2
smoothSolver:  Solving for Uz, Initial residual = 0.228894, Final residual = 0.00751517, No Iterations 2
GAMG:  Solving for p, Initial residual = 0.000827984, Final residual = 7.47832e-06, No Iterations 2
time step continuity errors : sum local = 0.000710243, global = 4.81321e-06, cumulative = -0.0005025
smoothSolver:  Solving for omega, Initial residual = 3.10925e-05, Final residual = 6.30382e-07, No Iterations 2
smoothSolver:  Solving for k, Initial residual = 0.000227197, Final residual = 5.55373e-06, No Iterations 2
ExecutionTime = 0.28 s  ClockTime = 0 s

forceCoeffs forceCoeffs1 write:
    Coefficient	Total	Pressure	Viscous	Internal
    Cd:	0	0	0	0
    Cd(f):	0	0	0	0
    Cd(r):	0	0	0	0
    Cl:	0	0	0	0
    Cl(f):	0	0	0	0
    Cl(r):	0	0	0	0
    CmPitch:	0	0	0	0
    CmRoll:	0	0	0	0
    CmYaw:	0	0	0	0
    Cs:	0	0	0	0
    Cs(f):	0	0	0	0
    Cs(r):	0	0	0	0

    writing force and moment coefficient files.

Time = 31

smoothSolver:  Solving for Ux, Initial residual = 0.150779, Final residual = 0.00909356, No Iterations 2
smoothSolver:  Solving for Uy, Initial residual = 0.394244, Final residual = 0.00913077, No Iterations 2
smoothSolver:  Solving for Uz, Initial residual = 0.214203, Final residual = 0.00814615, No Iterations 2
GAMG:  Solving for p, Initial residual = 0.000776809, Final residual = 1.19557e-06, No Iterations 3
time step continuity errors : sum local = 0.000113626, global = 3.44064e-05, cumulative = -0.000468094
smoothSolver:  Solving for omega, Initial residual = 3.27963e-05, Final residual = 7.41802e-07, No Iterations 2
smoothSolver:  Solving for k, Initial residual = 0.000322035, Final residual = 7.72783e-06, No Iterations 2
ExecutionTime = 0.28 s  ClockTime = 0 s

forceCoeffs forceCoeffs1 write:
    Coefficient	Total	Pressure	Viscous	Internal
    Cd:	0	0	0	0
    Cd(f):	0	0	0	0
    Cd(r):	0	0	0	0
    Cl:	0	0	0	0
    Cl(f):	0	0	0	0
    Cl(r):	0	0	0	0
    CmPitch:	0	0	0	0
    CmRoll:	0	0	0	0
    CmYaw:	0	0	0	0
    Cs:	0	0	0	0
    Cs(f):	0	0	0	0
    Cs(r):	0	0	0	0

    writing force and moment coefficient files.

Time = 32

smoothSolver:  Solving for Ux, Initial residual = 0.139507, Final residual = 0.00838356, No Iterations 2
smoothSolver:  Solving for Uy, Initial residual = 0.394661, Final residual = 0.00855355, No Iterations 2
smoothSolver:  Solving for Uz, Initial residual = 0.206044, Final residual = 0.00882294, No Iterations 2
GAMG:  Solving for p, Initial residual = 0.000727718, Final residual = 1.16146e-06, No Iterations 3
time step continuity errors : sum local = 0.000110459, global = 3.47677e-05, cumulative = -0.000433326
smoothSolver:  Solving for omega, Initial residual = 2.85978e-05, Final residual = 5.85039e-07, No Iterations 2
smoothSolver:  Solving for k, Initial residual = 0.000234536, Final residual = 5.77128e-06, No Iterations 2
ExecutionTime = 0.29 s  ClockTime = 0 s

forceCoeffs forceCoeffs1 write:
    Coefficient	Total	Pressure	Viscous	Internal
    Cd:	0	0	0	0
    Cd(f):	0	0	0	0
    Cd(r):	0	0	0	0
    Cl:	0	0	0	0
    Cl(f):	0	0	0	0
    Cl(r):	0	0	0	0
    CmPitch:	0	0	0	0
    CmRoll:	0	0	0	0
    CmYaw:	0	0	0	0
    Cs:	0	0	0	0
    Cs(f):	0	0	0	0
    Cs(r):	0	0	0	0

    writing force and moment coefficient files.

Time = 33

smoothSolver:  Solving for Ux, Initial residual = 0.130251, Final residual = 0.00758517, No Iterations 2
smoothSolver:  Solving for Uy, Initial residual = 0.386505, Final residual = 0.00862538, No Iterations 2
smoothSolver:  Solving for Uz, Initial residual = 0.195503, Final residual = 0.00886609, No Iterations 2
GAMG:  Solving for p, Initial residual = 0.000682982, Final residual = 1.09089e-06, No Iterations 3
time step continuity errors : sum local = 0.000103823, global = 3.32756e-05, cumulative = -0.00040005
smoothSolver:  Solving for omega, Initial residual = 2.81883e-05, Final residual = 4.93935e-07, No Iterations 2
smoothSolver:  Solving for k, Initial residual = 0.000205318, Final residual = 4.51463e-06, No Iterations 2
ExecutionTime = 0.29 s  ClockTime = 0 s

forceCoeffs forceCoeffs1 write:
    Coefficient	Total	Pressure	Viscous	Internal
    Cd:	0	0	0	0
    Cd(f):	0	0	0	0
    Cd(r):	0	0	0	0
    Cl:	0	0	0	0
    Cl(f):	0	0	0	0
    Cl(r):	0	0	0	0
    CmPitch:	0	0	0	0
    CmRoll:	0	0	0	0
    CmYaw:	0	0	0	0
    Cs:	0	0	0	0
    Cs(f):	0	0	0	0
    Cs(r):	0	0	0	0

    writing force and moment coefficient files.

Time = 34

smoothSolver:  Solving for Ux, Initial residual = 0.121803, Final residual = 0.00679565, No Iterations 2
smoothSolver:  Solving for Uy, Initial residual = 0.388366, Final residual = 0.00871793, No Iterations 2
smoothSolver:  Solving for Uz, Initial residual = 0.18818, Final residual = 0.00902275, No Iterations 2
GAMG:  Solving for p, Initial residual = 0.000639938, Final residual = 9.73006e-07, No Iterations 3
time step continuity errors : sum local = 9.26798e-05, global = 2.96772e-05, cumulative = -0.000370373
smoothSolver:  Solving for omega, Initial residual = 2.68946e-05, Final residual = 4.2481e-07, No Iterations 2
smoothSolver:  Solving for k, Initial residual = 0.000192328, Final residual = 3.85341e-06, No Iterations 2
ExecutionTime = 0.3 s  ClockTime = 0 s

forceCoeffs forceCoeffs1 write:
    Coefficient	Total	Pressure	Viscous	Internal
    Cd:	0	0	0	0
    Cd(f):	0	0	0	0
    Cd(r):	0	0	0	0
    Cl:	0	0	0	0
    Cl(f):	0	0	0	0
    Cl(r):	0	0	0	0
    CmPitch:	0	0	0	0
    CmRoll:	0	0	0	0
    CmYaw:	0	0	0	0
    Cs:	0	0	0	0
    Cs(f):	0	0	0	0
    Cs(r):	0	0	0	0

    writing force and moment coefficient files.

Time = 35

smoothSolver:  Solving for Ux, Initial residual = 0.11402, Final residual = 0.00610214, No Iterations 2
smoothSolver:  Solving for Uy, Initial residual = 0.393545, Final residual = 0.00867098, No Iterations 2
smoothSolver:  Solving for Uz, Initial residual = 0.182572, Final residual = 0.00881131, No Iterations 2
GAMG:  Solving for p, Initial residual = 0.000606404, Final residual = 5.84489e-06, No Iterations 2
time step continuity errors : sum local = 0.000557174, global = -7.4048e-06, cumulative = -0.000377778
smoothSolver:  Solving for omega, Initial residual = 2.84708e-05, Final residual = 3.71854e-07, No Iterations 2
smoothSolver:  Solving for k, Initial residual = 0.000249548, Final residual = 2.77606e-06, No Iterations 2
ExecutionTime = 0.3 s  ClockTime = 0 s

forceCoeffs forceCoeffs1 write:
    Coefficient	Total	Pressure	Viscous	Internal
    Cd:	0	0	0	0
    Cd(f):	0	0	0	0
    Cd(r):	0	0	0	0
    Cl:	0	0	0	0
    Cl(f):	0	0	0	0
    Cl(r):	0	0	0	0
    CmPitch:	0	0	0	0
    CmRoll:	0	0	0	0
    CmYaw:	0	0	0	0
    Cs:	0	0	0	0
    Cs(f):	0	0	0	0
    Cs(r):	0	0	0	0

    writing force and moment coefficient files.

Time = 36

smoothSolver:  Solving for Ux, Initial residual = 0.104802, Final residual = 0.00543608, No Iterations 2
smoothSolver:  Solving for Uy, Initial residual = 0.40254, Final residual = 0.00941327, No Iterations 2
smoothSolver:  Solving for Uz, Initial residual = 0.173047, Final residual = 0.00882811, No Iterations 2
GAMG:  Solving for p, Initial residual = 0.000568728, Final residual = 4.79444e-06, No Iterations 2
time step continuity errors : sum local = 0.000457343, global = -1.43702e-06, cumulative = -0.000379215
smoothSolver:  Solving for omega, Initial residual = 2.6706e-05, Final residual = 4.60069e-07, No Iterations 2
smoothSolver:  Solving for k, Initial residual = 0.000184749, Final residual = 3.65678e-06, No Iterations 2
ExecutionTime = 0.31 s  ClockTime = 0 s

forceCoeffs forceCoeffs1 write:
    Coefficient	Total	Pressure	Viscous	Internal
    Cd:	0	0	0	0
    Cd(f):	0	0	0	0
    Cd(r):	0	0	0	0
    Cl:	0	0	0	0
    Cl(f):	0	0	0	0
    Cl(r):	0	0	0	0
    CmPitch:	0	0	0	0
    CmRoll:	0	0	0	0
    CmYaw:	0	0	0	0
    Cs:	0	0	0	0
    Cs(f):	0	0	0	0
    Cs(r):	0	0	0	0

    writing force and moment coefficient files.

Time = 37

smoothSolver:  Solving for Ux, Initial residual = 0.0991175, Final residual = 0.00486598, No Iterations 2
smoothSolver:  Solving for Uy, Initial residual = 0.414202, Final residual = 0.00907984, No Iterations 2
smoothSolver:  Solving for Uz, Initial residual = 0.16992, Final residual = 0.00907079, No Iterations 2
GAMG:  Solving for p, Initial residual = 0.000531046, Final residual = 3.7277e-06, No Iterations 2
time step continuity errors : sum local = 0.000355773, global = 1.17207e-05, cumulative = -0.000367494
smoothSolver:  Solving for omega, Initial residual = 2.55181e-05, Final residual = 4.75384e-07, No Iterations 2
smoothSolver:  Solving for k, Initial residual = 0.000166095, Final residual = 4.02667e-06, No Iterations 2
ExecutionTime = 0.31 s  ClockTime = 0 s

forceCoeffs forceCoeffs1 write:
    Coefficient	Total	Pressure	Viscous	Internal
    Cd:	0	0	0	0
    Cd(f):	0	0	0	0
    Cd(r):	0	0	0	0
    Cl:	0	0	0	0
    Cl(f):	0	0	0	0
    Cl(r):	0	0	0	0
    CmPitch:	0	0	0	0
    CmRoll:	0	0	0	0
    CmYaw:	0	0	0	0
    Cs:	0	0	0	0
    Cs(f):	0	0	0	0
    Cs(r):	0	0	0	0

    writing force and moment coefficient files.

Time = 38

smoothSolver:  Solving for Ux, Initial residual = 0.0942836, Final residual = 0.00443655, No Iterations 2
smoothSolver:  Solving for Uy, Initial residual = 0.419164, Final residual = 0.00866929, No Iterations 2
smoothSolver:  Solving for Uz, Initial residual = 0.165525, Final residual = 0.00887174, No Iterations 2
GAMG:  Solving for p, Initial residual = 0.000492286, Final residual = 2.99142e-06, No Iterations 2
time step continuity errors : sum local = 0.000285608, global = 2.75683e-05, cumulative = -0.000339926
smoothSolver:  Solving for omega, Initial residual = 2.43874e-05, Final residual = 4.50814e-07, No Iterations 2
smoothSolver:  Solving for k, Initial residual = 0.000155149, Final residual = 3.9542e-06, No Iterations 2
ExecutionTime = 0.31 s  ClockTime = 0 s

forceCoeffs forceCoeffs1 write:
    Coefficient	Total	Pressure	Viscous	Internal
    Cd:	0	0	0	0
    Cd(f):	0	0	0	0
    Cd(r):	0	0	0	0
    Cl:	0	0	0	0
    Cl(f):	0	0	0	0
    Cl(r):	0	0	0	0
    CmPitch:	0	0	0	0
    CmRoll:	0	0	0	0
    CmYaw:	0	0	0	0
    Cs:	0	0	0	0
    Cs(f):	0	0	0	0
    Cs(r):	0	0	0	0

    writing force and moment coefficient files.

Time = 39

smoothSolver:  Solving for Ux, Initial residual = 0.088838, Final residual = 0.00406265, No Iterations 2
smoothSolver:  Solving for Uy, Initial residual = 0.419675, Final residual = 0.00830162, No Iterations 2
smoothSolver:  Solving for Uz, Initial residual = 0.159547, Final residual = 0.00839085, No Iterations 2
GAMG:  Solving for p, Initial residual = 0.0004565, Final residual = 2.61675e-06, No Iterations 2
time step continuity errors : sum local = 0.000249893, global = 3.76602e-05, cumulative = -0.000302266
smoothSolver:  Solving for omega, Initial residual = 2.29568e-05, Final residual = 4.14061e-07, No Iterations 2
smoothSolver:  Solving for k, Initial residual = 0.000148051, Final residual = 3.73701e-06, No Iterations 2
ExecutionTime = 0.32 s  ClockTime = 0 s

forceCoeffs forceCoeffs1 write:
    Coefficient	Total	Pressure	Viscous	Internal
    Cd:	0	0	0	0
    Cd(f):	0	0	0	0
    Cd(r):	0	0	0	0
    Cl:	0	0	0	0
    Cl(f):	0	0	0	0
    Cl(r):	0	0	0	0
    CmPitch:	0	0	0	0
    CmRoll:	0	0	0	0
    CmYaw:	0	0	0	0
    Cs:	0	0	0	0
    Cs(f):	0	0	0	0
    Cs(r):	0	0	0	0

    writing force and moment coefficient files.

Time = 40

smoothSolver:  Solving for Ux, Initial residual = 0.0827184, Final residual = 0.003707, No Iterations 2
smoothSolver:  Solving for Uy, Initial residual = 0.419905, Final residual = 0.00775039, No Iterations 2
smoothSolver:  Solving for Uz, Initial residual = 0.154052, Final residual = 0.00785823, No Iterations 2
GAMG:  Solving for p, Initial residual = 0.000423946, Final residual = 2.21872e-06, No Iterations 2
time step continuity errors : sum local = 0.000211898, global = 3.37554e-05, cumulative = -0.00026851
smoothSolver:  Solving for omega, Initial residual = 2.1461e-05, Final residual = 3.70688e-07, No Iterations 2
smoothSolver:  Solving for k, Initial residual = 0.000141724, Final residual = 3.33179e-06, No Iterations 2
ExecutionTime = 0.32 s  ClockTime = 0 s

forceCoeffs forceCoeffs1 write:
    Coefficient	Total	Pressure	Viscous	Internal
    Cd:	0	0	0	0
    Cd(f):	0	0	0	0
    Cd(r):	0	0	0	0
    Cl:	0	0	0	0
    Cl(f):	0	0	0	0
    Cl(r):	0	0	0	0
    CmPitch:	0	0	0	0
    CmRoll:	0	0	0	0
    CmYaw:	0	0	0	0
    Cs:	0	0	0	0
    Cs(f):	0	0	0	0
    Cs(r):	0	0	0	0

    writing force and moment coefficient files.

Time = 41

smoothSolver:  Solving for Ux, Initial residual = 0.0758955, Final residual = 0.00333989, No Iterations 2
smoothSolver:  Solving for Uy, Initial residual = 0.416785, Final residual = 0.00730101, No Iterations 2
smoothSolver:  Solving for Uz, Initial residual = 0.149702, Final residual = 0.00741058, No Iterations 2
GAMG:  Solving for p, Initial residual = 0.000389603, Final residual = 1.91838e-06, No Iterations 2
time step continuity errors : sum local = 0.000183214, global = -5.6961e-08, cumulative = -0.000268567
smoothSolver:  Solving for omega, Initial residual = 1.95881e-05, Final residual = 2.9548e-07, No Iterations 2
smoothSolver:  Solving for k, Initial residual = 0.000139054, Final residual = 2.55524e-06, No Iterations 2
ExecutionTime = 0.32 s  ClockTime = 0 s

forceCoeffs forceCoeffs1 write:
    Coefficient	Total	Pressure	Viscous	Internal
    Cd:	0	0	0	0
    Cd(f):	0	0	0	0
    Cd(r):	0	0	0	0
    Cl:	0	0	0	0
    Cl(f):	0	0	0	0
    Cl(r):	0	0	0	0
    CmPitch:	0	0	0	0
    CmRoll:	0	0	0	0
    CmYaw:	0	0	0	0
    Cs:	0	0	0	0
    Cs(f):	0	0	0	0
    Cs(r):	0	0	0	0

    writing force and moment coefficient files.

Time = 42

smoothSolver:  Solving for Ux, Initial residual = 0.0691022, Final residual = 0.00298122, No Iterations 2
smoothSolver:  Solving for Uy, Initial residual = 0.411507, Final residual = 0.00687805, No Iterations 2
smoothSolver:  Solving for Uz, Initial residual = 0.145362, Final residual = 0.00697782, No Iterations 2
GAMG:  Solving for p, Initial residual = 0.000358266, Final residual = 1.77984e-06, No Iterations 2
time step continuity errors : sum local = 0.000169985, global = -1.99921e-05, cumulative = -0.000288559
smoothSolver:  Solving for omega, Initial residual = 1.77104e-05, Final residual = 2.1013e-07, No Iterations 2
smoothSolver:  Solving for k, Initial residual = 0.000133094, Final residual = 1.69548e-06, No Iterations 2
ExecutionTime = 0.33 s  ClockTime = 0 s

forceCoeffs forceCoeffs1 write:
    Coefficient	Total	Pressure	Viscous	Internal
    Cd:	0	0	0	0
    Cd(f):	0	0	0	0
    Cd(r):	0	0	0	0
    Cl:	0	0	0	0
    Cl(f):	0	0	0	0
    Cl(r):	0	0	0	0
    CmPitch:	0	0	0	0
    CmRoll:	0	0	0	0
    CmYaw:	0	0	0	0
    Cs:	0	0	0	0
    Cs(f):	0	0	0	0
    Cs(r):	0	0	0	0

    writing force and moment coefficient files.

Time = 43

smoothSolver:  Solving for Ux, Initial residual = 0.0632681, Final residual = 0.00262602, No Iterations 2
smoothSolver:  Solving for Uy, Initial residual = 0.40323, Final residual = 0.00639799, No Iterations 2
smoothSolver:  Solving for Uz, Initial residual = 0.139906, Final residual = 0.0064596, No Iterations 2
GAMG:  Solving for p, Initial residual = 0.000328471, Final residual = 2.4494e-06, No Iterations 2
time step continuity errors : sum local = 0.000233922, global = -1.24634e-05, cumulative = -0.000301023
smoothSolver:  Solving for omega, Initial residual = 1.53368e-05, Final residual = 1.43527e-07, No Iterations 2
smoothSolver:  Solving for k, Initial residual = 0.000119834, Final residual = 1.27791e-06, No Iterations 2
ExecutionTime = 0.33 s  ClockTime = 0 s

forceCoeffs forceCoeffs1 write:
    Coefficient	Total	Pressure	Viscous	Internal
    Cd:	0	0	0	0
    Cd(f):	0	0	0	0
    Cd(r):	0	0	0	0
    Cl:	0	0	0	0
    Cl(f):	0	0	0	0
    Cl(r):	0	0	0	0
    CmPitch:	0	0	0	0
    CmRoll:	0	0	0	0
    CmYaw:	0	0	0	0
    Cs:	0	0	0	0
    Cs(f):	0	0	0	0
    Cs(r):	0	0	0	0

    writing force and moment coefficient files.

Time = 44

smoothSolver:  Solving for Ux, Initial residual = 0.0578051, Final residual = 0.00228505, No Iterations 2
smoothSolver:  Solving for Uy, Initial residual = 0.396671, Final residual = 0.00604816, No Iterations 2
smoothSolver:  Solving for Uz, Initial residual = 0.133419, Final residual = 0.0059639, No Iterations 2
GAMG:  Solving for p, Initial residual = 0.00030107, Final residual = 2.73601e-06, No Iterations 2
time step continuity errors : sum local = 0.000261266, global = 3.36294e-06, cumulative = -0.00029766
smoothSolver:  Solving for omega, Initial residual = 1.27176e-05, Final residual = 9.92549e-08, No Iterations 2
smoothSolver:  Solving for k, Initial residual = 9.71982e-05, Final residual = 1.13616e-06, No Iterations 2
ExecutionTime = 0.34 s  ClockTime = 0 s

forceCoeffs forceCoeffs1 write:
    Coefficient	Total	Pressure	Viscous	Internal
    Cd:	0	0	0	0
    Cd(f):	0	0	0	0
    Cd(r):	0	0	0	0
    Cl:	0	0	0	0
    Cl(f):	0	0	0	0
    Cl(r):	0	0	0	0
    CmPitch:	0	0	0	0
    CmRoll:	0	0	0	0
    CmYaw:	0	0	0	0
    Cs:	0	0	0	0
    Cs(f):	0	0	0	0
    Cs(r):	0	0	0	0

    writing force and moment coefficient files.

Time = 45

smoothSolver:  Solving for Ux, Initial residual = 0.0524509, Final residual = 0.00196629, No Iterations 2
smoothSolver:  Solving for Uy, Initial residual = 0.386616, Final residual = 0.00562329, No Iterations 2
smoothSolver:  Solving for Uz, Initial residual = 0.126282, Final residual = 0.00547563, No Iterations 2
GAMG:  Solving for p, Initial residual = 0.000276998, Final residual = 2.74498e-06, No Iterations 2
time step continuity errors : sum local = 0.000262077, global = 1.35786e-05, cumulative = -0.000284081
smoothSolver:  Solving for omega, Initial residual = 1.0297e-05, Final residual = 6.32048e-08, No Iterations 2
smoothSolver:  Solving for k, Initial residual = 7.73029e-05, Final residual = 1.02505e-06, No Iterations 2
ExecutionTime = 0.34 s  ClockTime = 0 s

forceCoeffs forceCoeffs1 write:
    Coefficient	Total	Pressure	Viscous	Internal
    Cd:	0	0	0	0
    Cd(f):	0	0	0	0
    Cd(r):	0	0	0	0
    Cl:	0	0	0	0
    Cl(f):	0	0	0	0
    Cl(r):	0	0	0	0
    CmPitch:	0	0	0	0
    CmRoll:	0	0	0	0
    CmYaw:	0	0	0	0
    Cs:	0	0	0	0
    Cs(f):	0	0	0	0
    Cs(r):	0	0	0	0

    writing force and moment coefficient files.

Time = 46

smoothSolver:  Solving for Ux, Initial residual = 0.0483793, Final residual = 0.00166883, No Iterations 2
smoothSolver:  Solving for Uy, Initial residual = 0.36884, Final residual = 0.0053145, No Iterations 2
smoothSolver:  Solving for Uz, Initial residual = 0.119415, Final residual = 0.00504075, No Iterations 2
GAMG:  Solving for p, Initial residual = 0.000258794, Final residual = 2.45918e-06, No Iterations 2
time step continuity errors : sum local = 0.000234738, global = 7.64145e-06, cumulative = -0.00027644
smoothSolver:  Solving for omega, Initial residual = 8.10691e-06, Final residual = 4.32147e-08, No Iterations 2
smoothSolver:  Solving for k, Initial residual = 6.9539e-05, Final residual = 1.02611e-06, No Iterations 2
ExecutionTime = 0.35 s  ClockTime = 0 s

forceCoeffs forceCoeffs1 write:
    Coefficient	Total	Pressure	Viscous	Internal
    Cd:	0	0	0	0
    Cd(f):	0	0	0	0
    Cd(r):	0	0	0	0
    Cl:	0	0	0	0
    Cl(f):	0	0	0	0
    Cl(r):	0	0	0	0
    CmPitch:	0	0	0	0
    CmRoll:	0	0	0	0
    CmYaw:	0	0	0	0
    Cs:	0	0	0	0
    Cs(f):	0	0	0	0
    Cs(r):	0	0	0	0

    writing force and moment coefficient files.

Time = 47

smoothSolver:  Solving for Ux, Initial residual = 0.0446551, Final residual = 0.00139538, No Iterations 2
smoothSolver:  Solving for Uy, Initial residual = 0.35391, Final residual = 0.00504626, No Iterations 2
smoothSolver:  Solving for Uz, Initial residual = 0.112621, Final residual = 0.00461079, No Iterations 2
GAMG:  Solving for p, Initial residual = 0.000243897, Final residual = 2.28992e-06, No Iterations 2
time step continuity errors : sum local = 0.000218526, global = 1.00228e-05, cumulative = -0.000266417
smoothSolver:  Solving for omega, Initial residual = 6.15361e-06, Final residual = 4.22532e-08, No Iterations 2
smoothSolver:  Solving for k, Initial residual = 5.96147e-05, Final residual = 1.10801e-06, No Iterations 2
ExecutionTime = 0.35 s  ClockTime = 0 s

forceCoeffs forceCoeffs1 write:
    Coefficient	Total	Pressure	Viscous	Internal
    Cd:	0	0	0	0
    Cd(f):	0	0	0	0
    Cd(r):	0	0	0	0
    Cl:	0	0	0	0
    Cl(f):	0	0	0	0
    Cl(r):	0	0	0	0
    CmPitch:	0	0	0	0
    CmRoll:	0	0	0	0
    CmYaw:	0	0	0	0
    Cs:	0	0	0	0
    Cs(f):	0	0	0	0
    Cs(r):	0	0	0	0

    writing force and moment coefficient files.

Time = 48

smoothSolver:  Solving for Ux, Initial residual = 0.0412583, Final residual = 0.00115287, No Iterations 2
smoothSolver:  Solving for Uy, Initial residual = 0.339199, Final residual = 0.00480286, No Iterations 2
smoothSolver:  Solving for Uz, Initial residual = 0.1061, Final residual = 0.00423059, No Iterations 2
GAMG:  Solving for p, Initial residual = 0.00022994, Final residual = 2.10081e-06, No Iterations 2
time step continuity errors : sum local = 0.000200424, global = 1.1348e-05, cumulative = -0.000255069
smoothSolver:  Solving for omega, Initial residual = 5.19059e-06, Final residual = 4.40175e-08, No Iterations 2
smoothSolver:  Solving for k, Initial residual = 5.36219e-05, Final residual = 1.16741e-06, No Iterations 2
ExecutionTime = 0.35 s  ClockTime = 0 s

forceCoeffs forceCoeffs1 write:
    Coefficient	Total	Pressure	Viscous	Internal
    Cd:	0	0	0	0
    Cd(f):	0	0	0	0
    Cd(r):	0	0	0	0
    Cl:	0	0	0	0
    Cl(f):	0	0	0	0
    Cl(r):	0	0	0	0
    CmPitch:	0	0	0	0
    CmRoll:	0	0	0	0
    CmYaw:	0	0	0	0
    Cs:	0	0	0	0
    Cs(f):	0	0	0	0
    Cs(r):	0	0	0	0

    writing force and moment coefficient files.

Time = 49

smoothSolver:  Solving for Ux, Initial residual = 0.0381423, Final residual = 0.000981626, No Iterations 2
smoothSolver:  Solving for Uy, Initial residual = 0.324846, Final residual = 0.00456939, No Iterations 2
smoothSolver:  Solving for Uz, Initial residual = 0.0997663, Final residual = 0.00387797, No Iterations 2
GAMG:  Solving for p, Initial residual = 0.000216594, Final residual = 1.89418e-06, No Iterations 2
time step continuity errors : sum local = 0.000180666, global = 1.15991e-05, cumulative = -0.00024347
smoothSolver:  Solving for omega, Initial residual = 4.74134e-06, Final residual = 4.75303e-08, No Iterations 2
smoothSolver:  Solving for k, Initial residual = 5.08112e-05, Final residual = 1.18783e-06, No Iterations 2
ExecutionTime = 0.36 s  ClockTime = 0 s

forceCoeffs forceCoeffs1 write:
    Coefficient	Total	Pressure	Viscous	Internal
    Cd:	0	0	0	0
    Cd(f):	0	0	0	0
    Cd(r):	0	0	0	0
    Cl:	0	0	0	0
    Cl(f):	0	0	0	0
    Cl(r):	0	0	0	0
    CmPitch:	0	0	0	0
    CmRoll:	0	0	0	0
    CmYaw:	0	0	0	0
    Cs:	0	0	0	0
    Cs(f):	0	0	0	0
    Cs(r):	0	0	0	0

    writing force and moment coefficient files.

Time = 50

smoothSolver:  Solving for Ux, Initial residual = 0.034982, Final residual = 0.000898435, No Iterations 2
smoothSolver:  Solving for Uy, Initial residual = 0.314133, Final residual = 0.00442083, No Iterations 2
smoothSolver:  Solving for Uz, Initial residual = 0.0934905, Final residual = 0.00356473, No Iterations 2
GAMG:  Solving for p, Initial residual = 0.000202643, Final residual = 1.673e-06, No Iterations 2
time step continuity errors : sum local = 0.000159536, global = 1.08541e-05, cumulative = -0.000232616
smoothSolver:  Solving for omega, Initial residual = 4.61968e-06, Final residual = 5.1272e-08, No Iterations 2
smoothSolver:  Solving for k, Initial residual = 5.05436e-05, Final residual = 1.199e-06, No Iterations 2
ExecutionTime = 0.36 s  ClockTime = 0 s

forceCoeffs forceCoeffs1 write:
    Coefficient	Total	Pressure	Viscous	Internal
    Cd:	0	0	0	0
    Cd(f):	0	0	0	0
    Cd(r):	0	0	0	0
    Cl:	0	0	0	0
    Cl(f):	0	0	0	0
    Cl(r):	0	0	0	0
    CmPitch:	0	0	0	0
    CmRoll:	0	0	0	0
    CmYaw:	0	0	0	0
    Cs:	0	0	0	0
    Cs(f):	0	0	0	0
    Cs(r):	0	0	0	0

    writing force and moment coefficient files.

Time = 51

smoothSolver:  Solving for Ux, Initial residual = 0.0327927, Final residual = 0.000849401, No Iterations 2
smoothSolver:  Solving for Uy, Initial residual = 0.306214, Final residual = 0.00431374, No Iterations 2
smoothSolver:  Solving for Uz, Initial residual = 0.0876597, Final residual = 0.0032579, No Iterations 2
GAMG:  Solving for p, Initial residual = 0.000188034, Final residual = 1.44084e-06, No Iterations 2
time step continuity errors : sum local = 0.000137371, global = 9.06261e-06, cumulative = -0.000223553
smoothSolver:  Solving for omega, Initial residual = 4.72837e-06, Final residual = 5.29282e-08, No Iterations 2
smoothSolver:  Solving for k, Initial residual = 5.14491e-05, Final residual = 1.18437e-06, No Iterations 2
ExecutionTime = 0.37 s  ClockTime = 0 s

forceCoeffs forceCoeffs1 write:
    Coefficient	Total	Pressure	Viscous	Internal
    Cd:	0	0	0	0
    Cd(f):	0	0	0	0
    Cd(r):	0	0	0	0
    Cl:	0	0	0	0
    Cl(f):	0	0	0	0
    Cl(r):	0	0	0	0
    CmPitch:	0	0	0	0
    CmRoll:	0	0	0	0
    CmYaw:	0	0	0	0
    Cs:	0	0	0	0
    Cs(f):	0	0	0	0
    Cs(r):	0	0	0	0

    writing force and moment coefficient files.

Time = 52

smoothSolver:  Solving for Ux, Initial residual = 0.0312453, Final residual = 0.000800904, No Iterations 2
smoothSolver:  Solving for Uy, Initial residual = 0.297576, Final residual = 0.00415282, No Iterations 2
smoothSolver:  Solving for Uz, Initial residual = 0.0824352, Final residual = 0.00296285, No Iterations 2
GAMG:  Solving for p, Initial residual = 0.000174191, Final residual = 1.207e-06, No Iterations 2
time step continuity errors : sum local = 0.000115054, global = 6.38328e-06, cumulative = -0.00021717
smoothSolver:  Solving for omega, Initial residual = 4.78028e-06, Final residual = 5.23029e-08, No Iterations 2
smoothSolver:  Solving for k, Initial residual = 5.26028e-05, Final residual = 1.15457e-06, No Iterations 2
ExecutionTime = 0.37 s  ClockTime = 0 s

forceCoeffs forceCoeffs1 write:
    Coefficient	Total	Pressure	Viscous	Internal
    Cd:	0	0	0	0
    Cd(f):	0	0	0	0
    Cd(r):	0	0	0	0
    Cl:	0	0	0	0
    Cl(f):	0	0	0	0
    Cl(r):	0	0	0	0
    CmPitch:	0	0	0	0
    CmRoll:	0	0	0	0
    CmYaw:	0	0	0	0
    Cs:	0	0	0	0
    Cs(f):	0	0	0	0
    Cs(r):	0	0	0	0

    writing force and moment coefficient files.

Time = 53

smoothSolver:  Solving for Ux, Initial residual = 0.0296803, Final residual = 0.000755036, No Iterations 2
smoothSolver:  Solving for Uy, Initial residual = 0.287949, Final residual = 0.00404455, No Iterations 2
smoothSolver:  Solving for Uz, Initial residual = 0.0786463, Final residual = 0.00266023, No Iterations 2
GAMG:  Solving for p, Initial residual = 0.000162631, Final residual = 9.77794e-07, No Iterations 2
time step continuity errors : sum local = 9.31881e-05, global = 2.98327e-06, cumulative = -0.000214187
smoothSolver:  Solving for omega, Initial residual = 4.76211e-06, Final residual = 5.03266e-08, No Iterations 2
smoothSolver:  Solving for k, Initial residual = 5.2855e-05, Final residual = 1.10582e-06, No Iterations 2
ExecutionTime = 0.38 s  ClockTime = 0 s

forceCoeffs forceCoeffs1 write:
    Coefficient	Total	Pressure	Viscous	Internal
    Cd:	0	0	0	0
    Cd(f):	0	0	0	0
    Cd(r):	0	0	0	0
    Cl:	0	0	0	0
    Cl(f):	0	0	0	0
    Cl(r):	0	0	0	0
    CmPitch:	0	0	0	0
    CmRoll:	0	0	0	0
    CmYaw:	0	0	0	0
    Cs:	0	0	0	0
    Cs(f):	0	0	0	0
    Cs(r):	0	0	0	0

    writing force and moment coefficient files.

Time = 54

smoothSolver:  Solving for Ux, Initial residual = 0.0280029, Final residual = 0.000715754, No Iterations 2
smoothSolver:  Solving for Uy, Initial residual = 0.280022, Final residual = 0.00396126, No Iterations 2
smoothSolver:  Solving for Uz, Initial residual = 0.0737691, Final residual = 0.00237183, No Iterations 2
GAMG:  Solving for p, Initial residual = 0.000151553, Final residual = 7.61673e-07, No Iterations 2
time step continuity errors : sum local = 7.25782e-05, global = -8.99863e-07, cumulative = -0.000215087
smoothSolver:  Solving for omega, Initial residual = 4.69549e-06, Final residual = 4.79002e-08, No Iterations 2
smoothSolver:  Solving for k, Initial residual = 5.17774e-05, Final residual = 1.04398e-06, No Iterations 2
ExecutionTime = 0.38 s  ClockTime = 0 s

forceCoeffs forceCoeffs1 write:
    Coefficient	Total	Pressure	Viscous	Internal
    Cd:	0	0	0	0
    Cd(f):	0	0	0	0
    Cd(r):	0	0	0	0
    Cl:	0	0	0	0
    Cl(f):	0	0	0	0
    Cl(r):	0	0	0	0
    CmPitch:	0	0	0	0
    CmRoll:	0	0	0	0
    CmYaw:	0	0	0	0
    Cs:	0	0	0	0
    Cs(f):	0	0	0	0
    Cs(r):	0	0	0	0

    writing force and moment coefficient files.

Time = 55

smoothSolver:  Solving for Ux, Initial residual = 0.0264283, Final residual = 0.000686821, No Iterations 2
smoothSolver:  Solving for Uy, Initial residual = 0.271687, Final residual = 0.00388518, No Iterations 2
smoothSolver:  Solving for Uz, Initial residual = 0.0692868, Final residual = 0.00210497, No Iterations 2
GAMG:  Solving for p, Initial residual = 0.000140541, Final residual = 6.11987e-07, No Iterations 2
time step continuity errors : sum local = 5.83057e-05, global = -4.21801e-06, cumulative = -0.000219305
smoothSolver:  Solving for omega, Initial residual = 4.5677e-06, Final residual = 4.41252e-08, No Iterations 2
smoothSolver:  Solving for k, Initial residual = 5.0007e-05, Final residual = 9.67452e-07, No Iterations 2
ExecutionTime = 0.39 s  ClockTime = 0 s

forceCoeffs forceCoeffs1 write:
    Coefficient	Total	Pressure	Viscous	Internal
    Cd:	0	0	0	0
    Cd(f):	0	0	0	0
    Cd(r):	0	0	0	0
    Cl:	0	0	0	0
    Cl(f):	0	0	0	0
    Cl(r):	0	0	0	0
    CmPitch:	0	0	0	0
    CmRoll:	0	0	0	0
    CmYaw:	0	0	0	0
    Cs:	0	0	0	0
    Cs(f):	0	0	0	0
    Cs(r):	0	0	0	0

    writing force and moment coefficient files.

Time = 56

smoothSolver:  Solving for Ux, Initial residual = 0.0248191, Final residual = 0.000654393, No Iterations 2
smoothSolver:  Solving for Uy, Initial residual = 0.265083, Final residual = 0.00385416, No Iterations 2
smoothSolver:  Solving for Uz, Initial residual = 0.0653961, Final residual = 0.00184412, No Iterations 2
GAMG:  Solving for p, Initial residual = 0.000129767, Final residual = 4.91345e-07, No Iterations 2
time step continuity errors : sum local = 4.68052e-05, global = -8.69763e-06, cumulative = -0.000228002
smoothSolver:  Solving for omega, Initial residual = 4.32517e-06, Final residual = 4.02726e-08, No Iterations 2
smoothSolver:  Solving for k, Initial residual = 4.68704e-05, Final residual = 8.76689e-07, No Iterations 2
ExecutionTime = 0.39 s  ClockTime = 0 s

forceCoeffs forceCoeffs1 write:
    Coefficient	Total	Pressure	Viscous	Internal
    Cd:	0	0	0	0
    Cd(f):	0	0	0	0
    Cd(r):	0	0	0	0
    Cl:	0	0	0	0
    Cl(f):	0	0	0	0
    Cl(r):	0	0	0	0
    CmPitch:	0	0	0	0
    CmRoll:	0	0	0	0
    CmYaw:	0	0	0	0
    Cs:	0	0	0	0
    Cs(f):	0	0	0	0
    Cs(r):	0	0	0	0

    writing force and moment coefficient files.

Time = 57

smoothSolver:  Solving for Ux, Initial residual = 0.0232167, Final residual = 0.000620523, No Iterations 2
smoothSolver:  Solving for Uy, Initial residual = 0.260532, Final residual = 0.00382348, No Iterations 2
smoothSolver:  Solving for Uz, Initial residual = 0.0618775, Final residual = 0.0016222, No Iterations 2
GAMG:  Solving for p, Initial residual = 0.000119884, Final residual = 3.90585e-07, No Iterations 2
time step continuity errors : sum local = 3.72029e-05, global = -9.66058e-06, cumulative = -0.000237663
smoothSolver:  Solving for omega, Initial residual = 4.11532e-06, Final residual = 3.86249e-08, No Iterations 2
smoothSolver:  Solving for k, Initial residual = 4.4351e-05, Final residual = 8.05734e-07, No Iterations 2
ExecutionTime = 0.39 s  ClockTime = 0 s

forceCoeffs forceCoeffs1 write:
    Coefficient	Total	Pressure	Viscous	Internal
    Cd:	0	0	0	0
    Cd(f):	0	0	0	0
    Cd(r):	0	0	0	0
    Cl:	0	0	0	0
    Cl(f):	0	0	0	0
    Cl(r):	0	0	0	0
    CmPitch:	0	0	0	0
    CmRoll:	0	0	0	0
    CmYaw:	0	0	0	0
    Cs:	0	0	0	0
    Cs(f):	0	0	0	0
    Cs(r):	0	0	0	0

    writing force and moment coefficient files.

Time = 58

smoothSolver:  Solving for Ux, Initial residual = 0.0217557, Final residual = 0.000591659, No Iterations 2
smoothSolver:  Solving for Uy, Initial residual = 0.254402, Final residual = 0.00365572, No Iterations 2
smoothSolver:  Solving for Uz, Initial residual = 0.0583052, Final residual = 0.00146357, No Iterations 2
GAMG:  Solving for p, Initial residual = 0.000110282, Final residual = 3.52159e-07, No Iterations 2
time step continuity errors : sum local = 3.35403e-05, global = -2.66296e-06, cumulative = -0.000240326
smoothSolver:  Solving for omega, Initial residual = 3.89625e-06, Final residual = 3.61139e-08, No Iterations 2
smoothSolver:  Solving for k, Initial residual = 4.21563e-05, Final residual = 7.66385e-07, No Iterations 2
ExecutionTime = 0.4 s  ClockTime = 0 s

forceCoeffs forceCoeffs1 write:
    Coefficient	Total	Pressure	Viscous	Internal
    Cd:	0	0	0	0
    Cd(f):	0	0	0	0
    Cd(r):	0	0	0	0
    Cl:	0	0	0	0
    Cl(f):	0	0	0	0
    Cl(r):	0	0	0	0
    CmPitch:	0	0	0	0
    CmRoll:	0	0	0	0
    CmYaw:	0	0	0	0
    Cs:	0	0	0	0
    Cs(f):	0	0	0	0
    Cs(r):	0	0	0	0

    writing force and moment coefficient files.

Time = 59

smoothSolver:  Solving for Ux, Initial residual = 0.020396, Final residual = 0.000564464, No Iterations 2
smoothSolver:  Solving for Uy, Initial residual = 0.248818, Final residual = 0.00358327, No Iterations 2
smoothSolver:  Solving for Uz, Initial residual = 0.054552, Final residual = 0.00130898, No Iterations 2
GAMG:  Solving for p, Initial residual = 0.000101653, Final residual = 4.40774e-07, No Iterations 2
time step continuity errors : sum local = 4.19776e-05, global = -3.4062e-06, cumulative = -0.000243732
smoothSolver:  Solving for omega, Initial residual = 3.60522e-06, Final residual = 3.07622e-08, No Iterations 2
smoothSolver:  Solving for k, Initial residual = 3.89895e-05, Final residual = 6.99946e-07, No Iterations 2
ExecutionTime = 0.4 s  ClockTime = 0 s

forceCoeffs forceCoeffs1 write:
    Coefficient	Total	Pressure	Viscous	Internal
    Cd:	0	0	0	0
    Cd(f):	0	0	0	0
    Cd(r):	0	0	0	0
    Cl:	0	0	0	0
    Cl(f):	0	0	0	0
    Cl(r):	0	0	0	0
    CmPitch:	0	0	0	0
    CmRoll:	0	0	0	0
    CmYaw:	0	0	0	0
    Cs:	0	0	0	0
    Cs(f):	0	0	0	0
    Cs(r):	0	0	0	0

    writing force and moment coefficient files.

Time = 60

smoothSolver:  Solving for Ux, Initial residual = 0.0190303, Final residual = 0.000536965, No Iterations 2
smoothSolver:  Solving for Uy, Initial residual = 0.24428, Final residual = 0.00362492, No Iterations 2
smoothSolver:  Solving for Uz, Initial residual = 0.0515268, Final residual = 0.00117874, No Iterations 2
GAMG:  Solving for p, Initial residual = 9.43899e-05, Final residual = 4.19438e-07, No Iterations 2
time step continuity errors : sum local = 3.99442e-05, global = -1.53133e-06, cumulative = -0.000245263
smoothSolver:  Solving for omega, Initial residual = 3.40137e-06, Final residual = 2.78992e-08, No Iterations 2
smoothSolver:  Solving for k, Initial residual = 3.67802e-05, Final residual = 6.27448e-07, No Iterations 2
ExecutionTime = 0.4 s  ClockTime = 0 s

forceCoeffs forceCoeffs1 write:
    Coefficient	Total	Pressure	Viscous	Internal
    Cd:	0	0	0	0
    Cd(f):	0	0	0	0
    Cd(r):	0	0	0	0
    Cl:	0	0	0	0
    Cl(f):	0	0	0	0
    Cl(r):	0	0	0	0
    CmPitch:	0	0	0	0
    CmRoll:	0	0	0	0
    CmYaw:	0	0	0	0
    Cs:	0	0	0	0
    Cs(f):	0	0	0	0
    Cs(r):	0	0	0	0

    writing force and moment coefficient files.

Time = 61

smoothSolver:  Solving for Ux, Initial residual = 0.0176109, Final residual = 0.000510534, No Iterations 2
smoothSolver:  Solving for Uy, Initial residual = 0.238691, Final residual = 0.00348536, No Iterations 2
smoothSolver:  Solving for Uz, Initial residual = 0.0486293, Final residual = 0.00103783, No Iterations 2
GAMG:  Solving for p, Initial residual = 8.77718e-05, Final residual = 4.61562e-07, No Iterations 2
time step continuity errors : sum local = 4.39545e-05, global = -3.36715e-06, cumulative = -0.00024863
smoothSolver:  Solving for omega, Initial residual = 3.1005e-06, Final residual = 2.3848e-08, No Iterations 2
smoothSolver:  Solving for k, Initial residual = 3.33736e-05, Final residual = 5.47099e-07, No Iterations 2
ExecutionTime = 0.41 s  ClockTime = 0 s

forceCoeffs forceCoeffs1 write:
    Coefficient	Total	Pressure	Viscous	Internal
    Cd:	0	0	0	0
    Cd(f):	0	0	0	0
    Cd(r):	0	0	0	0
    Cl:	0	0	0	0
    Cl(f):	0	0	0	0
    Cl(r):	0	0	0	0
    CmPitch:	0	0	0	0
    CmRoll:	0	0	0	0
    CmYaw:	0	0	0	0
    Cs:	0	0	0	0
    Cs(f):	0	0	0	0
    Cs(r):	0	0	0	0

    writing force and moment coefficient files.

Time = 62

smoothSolver:  Solving for Ux, Initial residual = 0.0162072, Final residual = 0.000488001, No Iterations 2
smoothSolver:  Solving for Uy, Initial residual = 0.233078, Final residual = 0.00339182, No Iterations 2
smoothSolver:  Solving for Uz, Initial residual = 0.0462086, Final residual = 0.00460804, No Iterations 1
GAMG:  Solving for p, Initial residual = 8.15723e-05, Final residual = 4.83721e-07, No Iterations 2
time step continuity errors : sum local = 4.60637e-05, global = -4.61311e-06, cumulative = -0.000253244
smoothSolver:  Solving for omega, Initial residual = 2.73342e-06, Final residual = 2.13654e-08, No Iterations 2
smoothSolver:  Solving for k, Initial residual = 2.97664e-05, Final residual = 4.79344e-07, No Iterations 2
ExecutionTime = 0.41 s  ClockTime = 0 s

forceCoeffs forceCoeffs1 write:
    Coefficient	Total	Pressure	Viscous	Internal
    Cd:	0	0	0	0
    Cd(f):	0	0	0	0
    Cd(r):	0	0	0	0
    Cl:	0	0	0	0
    Cl(f):	0	0	0	0
    Cl(r):	0	0	0	0
    CmPitch:	0	0	0	0
    CmRoll:	0	0	0	0
    CmYaw:	0	0	0	0
    Cs:	0	0	0	0
    Cs(f):	0	0	0	0
    Cs(r):	0	0	0	0

    writing force and moment coefficient files.

Time = 63

smoothSolver:  Solving for Ux, Initial residual = 0.0148032, Final residual = 0.000465369, No Iterations 2
smoothSolver:  Solving for Uy, Initial residual = 0.22701, Final residual = 0.00327295, No Iterations 2
smoothSolver:  Solving for Uz, Initial residual = 0.0429507, Final residual = 0.000835722, No Iterations 2
GAMG:  Solving for p, Initial residual = 7.56467e-05, Final residual = 4.90426e-07, No Iterations 2
time step continuity errors : sum local = 4.67018e-05, global = -5.3284e-06, cumulative = -0.000258572
smoothSolver:  Solving for omega, Initial residual = 2.57183e-06, Final residual = 1.76244e-08, No Iterations 2
smoothSolver:  Solving for k, Initial residual = 2.71057e-05, Final residual = 4.25252e-07, No Iterations 2
ExecutionTime = 0.42 s  ClockTime = 0 s

forceCoeffs forceCoeffs1 write:
    Coefficient	Total	Pressure	Viscous	Internal
    Cd:	0	0	0	0
    Cd(f):	0	0	0	0
    Cd(r):	0	0	0	0
    Cl:	0	0	0	0
    Cl(f):	0	0	0	0
    Cl(r):	0	0	0	0
    CmPitch:	0	0	0	0
    CmRoll:	0	0	0	0
    CmYaw:	0	0	0	0
    Cs:	0	0	0	0
    Cs(f):	0	0	0	0
    Cs(r):	0	0	0	0

    writing force and moment coefficient files.

Time = 64

smoothSolver:  Solving for Ux, Initial residual = 0.0135216, Final residual = 0.000442725, No Iterations 2
smoothSolver:  Solving for Uy, Initial residual = 0.220017, Final residual = 0.00310095, No Iterations 2
smoothSolver:  Solving for Uz, Initial residual = 0.0411948, Final residual = 0.0038704, No Iterations 1
GAMG:  Solving for p, Initial residual = 7.01611e-05, Final residual = 4.90028e-07, No Iterations 2
time step continuity errors : sum local = 4.66638e-05, global = -5.69908e-06, cumulative = -0.000264271
smoothSolver:  Solving for omega, Initial residual = 2.32182e-06, Final residual = 1.67048e-08, No Iterations 2
smoothSolver:  Solving for k, Initial residual = 2.42063e-05, Final residual = 3.79138e-07, No Iterations 2
ExecutionTime = 0.42 s  ClockTime = 0 s

forceCoeffs forceCoeffs1 write:
    Coefficient	Total	Pressure	Viscous	Internal
    Cd:	0	0	0	0
    Cd(f):	0	0	0	0
    Cd(r):	0	0	0	0
    Cl:	0	0	0	0
    Cl(f):	0	0	0	0
    Cl(r):	0	0	0	0
    CmPitch:	0	0	0	0
    CmRoll:	0	0	0	0
    CmYaw:	0	0	0	0
    Cs:	0	0	0	0
    Cs(f):	0	0	0	0
    Cs(r):	0	0	0	0

    writing force and moment coefficient files.

Time = 65

smoothSolver:  Solving for Ux, Initial residual = 0.0123699, Final residual = 0.000420528, No Iterations 2
smoothSolver:  Solving for Uy, Initial residual = 0.212634, Final residual = 0.00291791, No Iterations 2
smoothSolver:  Solving for Uz, Initial residual = 0.038671, Final residual = 0.00370465, No Iterations 1
GAMG:  Solving for p, Initial residual = 6.54533e-05, Final residual = 4.81843e-07, No Iterations 2
time step continuity errors : sum local = 4.58843e-05, global = -5.80797e-06, cumulative = -0.000270079
smoothSolver:  Solving for omega, Initial residual = 2.06564e-06, Final residual = 1.42346e-08, No Iterations 2
smoothSolver:  Solving for k, Initial residual = 2.16797e-05, Final residual = 3.39969e-07, No Iterations 2
ExecutionTime = 0.42 s  ClockTime = 0 s

forceCoeffs forceCoeffs1 write:
    Coefficient	Total	Pressure	Viscous	Internal
    Cd:	0	0	0	0
    Cd(f):	0	0	0	0
    Cd(r):	0	0	0	0
    Cl:	0	0	0	0
    Cl(f):	0	0	0	0
    Cl(r):	0	0	0	0
    CmPitch:	0	0	0	0
    CmRoll:	0	0	0	0
    CmYaw:	0	0	0	0
    Cs:	0	0	0	0
    Cs(f):	0	0	0	0
    Cs(r):	0	0	0	0

    writing force and moment coefficient files.

Time = 66

smoothSolver:  Solving for Ux, Initial residual = 0.0113002, Final residual = 0.00040284, No Iterations 2
smoothSolver:  Solving for Uy, Initial residual = 0.204214, Final residual = 0.00277629, No Iterations 2
smoothSolver:  Solving for Uz, Initial residual = 0.0363121, Final residual = 0.00356961, No Iterations 1
GAMG:  Solving for p, Initial residual = 6.10576e-05, Final residual = 4.67557e-07, No Iterations 2
time step continuity errors : sum local = 4.45238e-05, global = -5.7074e-06, cumulative = -0.000275786
[...]

smoothSolver:  Solving for Ux, Initial residual = 6.91378e-09, Final residual = 6.91378e-09, No Iterations 0
smoothSolver:  Solving for Uy, Initial residual = 2.73699e-08, Final residual = 9.72515e-10, No Iterations 1
smoothSolver:  Solving for Uz, Initial residual = 1.86191e-08, Final residual = 3.6956e-10, No Iterations 1
GAMG:  Solving for p, Initial residual = 9.05128e-08, Final residual = 9.05128e-08, No Iterations 0
time step continuity errors : sum local = 8.61208e-06, global = -2.01634e-06, cumulative = -0.000896218
smoothSolver:  Solving for omega, Initial residual = 8.5135e-09, Final residual = 8.5135e-09, No Iterations 0
smoothSolver:  Solving for k, Initial residual = 7.3118e-09, Final residual = 7.3118e-09, No Iterations 0
ExecutionTime = 2.02 s  ClockTime = 2 s

forceCoeffs forceCoeffs1 write:
    Coefficient	Total	Pressure	Viscous	Internal
    Cd:	0	0	0	0
    Cd(f):	0	0	0	0
    Cd(r):	0	0	0	0
    Cl:	0	0	0	0
    Cl(f):	0	0	0	0
    Cl(r):	0	0	0	0
    CmPitch:	0	0	0	0
    CmRoll:	0	0	0	0
    CmYaw:	0	0	0	0
    Cs:	0	0	0	0
    Cs(f):	0	0	0	0
    Cs(r):	0	0	0	0

    writing force and moment coefficient files.

Time = 485

smoothSolver:  Solving for Ux, Initial residual = 7.64235e-09, Final residual = 7.64235e-09, No Iterations 0
smoothSolver:  Solving for Uy, Initial residual = 3.53133e-08, Final residual = 1.17555e-09, No Iterations 1
smoothSolver:  Solving for Uz, Initial residual = 2.11828e-08, Final residual = 6.16014e-10, No Iterations 1
GAMG:  Solving for p, Initial residual = 9.05094e-08, Final residual = 9.05094e-08, No Iterations 0
time step continuity errors : sum local = 8.61176e-06, global = -2.01649e-06, cumulative = -0.000898234
smoothSolver:  Solving for omega, Initial residual = 8.49783e-09, Final residual = 8.49783e-09, No Iterations 0
smoothSolver:  Solving for k, Initial residual = 7.63984e-09, Final residual = 7.63984e-09, No Iterations 0
ExecutionTime = 2.02 s  ClockTime = 2 s

forceCoeffs forceCoeffs1 write:
    Coefficient	Total	Pressure	Viscous	Internal
    Cd:	0	0	0	0
    Cd(f):	0	0	0	0
    Cd(r):	0	0	0	0
    Cl:	0	0	0	0
    Cl(f):	0	0	0	0
    Cl(r):	0	0	0	0
    CmPitch:	0	0	0	0
    CmRoll:	0	0	0	0
    CmYaw:	0	0	0	0
    Cs:	0	0	0	0
    Cs(f):	0	0	0	0
    Cs(r):	0	0	0	0

    writing force and moment coefficient files.

Time = 486

smoothSolver:  Solving for Ux, Initial residual = 8.46229e-09, Final residual = 8.46229e-09, No Iterations 0
smoothSolver:  Solving for Uy, Initial residual = 4.08725e-08, Final residual = 9.37244e-10, No Iterations 1
smoothSolver:  Solving for Uz, Initial residual = 2.27185e-08, Final residual = 6.00751e-10, No Iterations 1
GAMG:  Solving for p, Initial residual = 9.05003e-08, Final residual = 9.05003e-08, No Iterations 0
time step continuity errors : sum local = 8.6109e-06, global = -2.01637e-06, cumulative = -0.000900251
smoothSolver:  Solving for omega, Initial residual = 8.48517e-09, Final residual = 8.48517e-09, No Iterations 0
smoothSolver:  Solving for k, Initial residual = 7.88134e-09, Final residual = 7.88134e-09, No Iterations 0
ExecutionTime = 2.02 s  ClockTime = 2 s

forceCoeffs forceCoeffs1 write:
    Coefficient	Total	Pressure	Viscous	Internal
    Cd:	0	0	0	0
    Cd(f):	0	0	0	0
    Cd(r):	0	0	0	0
    Cl:	0	0	0	0
    Cl(f):	0	0	0	0
    Cl(r):	0	0	0	0
    CmPitch:	0	0	0	0
    CmRoll:	0	0	0	0
    CmYaw:	0	0	0	0
    Cs:	0	0	0	0
    Cs(f):	0	0	0	0
    Cs(r):	0	0	0	0

    writing force and moment coefficient files.

Time = 487

smoothSolver:  Solving for Ux, Initial residual = 9.39886e-09, Final residual = 9.39886e-09, No Iterations 0
smoothSolver:  Solving for Uy, Initial residual = 4.37858e-08, Final residual = 1.00704e-09, No Iterations 1
smoothSolver:  Solving for Uz, Initial residual = 2.40126e-08, Final residual = 4.0859e-10, No Iterations 1
GAMG:  Solving for p, Initial residual = 9.04903e-08, Final residual = 9.04903e-08, No Iterations 0
time step continuity errors : sum local = 8.60994e-06, global = -2.01599e-06, cumulative = -0.000902267
smoothSolver:  Solving for omega, Initial residual = 8.48465e-09, Final residual = 8.48465e-09, No Iterations 0
smoothSolver:  Solving for k, Initial residual = 8.024e-09, Final residual = 8.024e-09, No Iterations 0
ExecutionTime = 2.02 s  ClockTime = 2 s

forceCoeffs forceCoeffs1 write:
    Coefficient	Total	Pressure	Viscous	Internal
    Cd:	0	0	0	0
    Cd(f):	0	0	0	0
    Cd(r):	0	0	0	0
    Cl:	0	0	0	0
    Cl(f):	0	0	0	0
    Cl(r):	0	0	0	0
    CmPitch:	0	0	0	0
    CmRoll:	0	0	0	0
    CmYaw:	0	0	0	0
    Cs:	0	0	0	0
    Cs(f):	0	0	0	0
    Cs(r):	0	0	0	0

    writing force and moment coefficient files.

Time = 488

smoothSolver:  Solving for Ux, Initial residual = 1.09846e-08, Final residual = 2.37975e-10, No Iterations 1
smoothSolver:  Solving for Uy, Initial residual = 5.0116e-08, Final residual = 1.48515e-09, No Iterations 1
smoothSolver:  Solving for Uz, Initial residual = 2.79268e-08, Final residual = 5.52379e-10, No Iterations 1
GAMG:  Solving for p, Initial residual = 9.04948e-08, Final residual = 9.04948e-08, No Iterations 0
time step continuity errors : sum local = 8.61037e-06, global = -2.01596e-06, cumulative = -0.000904283
smoothSolver:  Solving for omega, Initial residual = 8.50241e-09, Final residual = 8.50241e-09, No Iterations 0
smoothSolver:  Solving for k, Initial residual = 7.42753e-09, Final residual = 7.42753e-09, No Iterations 0
ExecutionTime = 2.03 s  ClockTime = 2 s

forceCoeffs forceCoeffs1 write:
    Coefficient	Total	Pressure	Viscous	Internal
    Cd:	0	0	0	0
    Cd(f):	0	0	0	0
    Cd(r):	0	0	0	0
    Cl:	0	0	0	0
    Cl(f):	0	0	0	0
    Cl(r):	0	0	0	0
    CmPitch:	0	0	0	0
    CmRoll:	0	0	0	0
    CmYaw:	0	0	0	0
    Cs:	0	0	0	0
    Cs(f):	0	0	0	0
    Cs(r):	0	0	0	0

    writing force and moment coefficient files.

Time = 489

smoothSolver:  Solving for Ux, Initial residual = 5.96235e-09, Final residual = 5.96235e-09, No Iterations 0
smoothSolver:  Solving for Uy, Initial residual = 4.959e-08, Final residual = 1.23222e-09, No Iterations 1
smoothSolver:  Solving for Uz, Initial residual = 2.67358e-08, Final residual = 7.33329e-10, No Iterations 1
GAMG:  Solving for p, Initial residual = 9.04995e-08, Final residual = 9.04995e-08, No Iterations 0
time step continuity errors : sum local = 8.61081e-06, global = -2.01588e-06, cumulative = -0.000906299
smoothSolver:  Solving for omega, Initial residual = 8.51724e-09, Final residual = 8.51724e-09, No Iterations 0
smoothSolver:  Solving for k, Initial residual = 7.16266e-09, Final residual = 7.16266e-09, No Iterations 0
ExecutionTime = 2.03 s  ClockTime = 2 s

forceCoeffs forceCoeffs1 write:
    Coefficient	Total	Pressure	Viscous	Internal
    Cd:	0	0	0	0
    Cd(f):	0	0	0	0
    Cd(r):	0	0	0	0
    Cl:	0	0	0	0
    Cl(f):	0	0	0	0
    Cl(r):	0	0	0	0
    CmPitch:	0	0	0	0
    CmRoll:	0	0	0	0
    CmYaw:	0	0	0	0
    Cs:	0	0	0	0
    Cs(f):	0	0	0	0
    Cs(r):	0	0	0	0

    writing force and moment coefficient files.

Time = 490

smoothSolver:  Solving for Ux, Initial residual = 7.01015e-09, Final residual = 7.01015e-09, No Iterations 0
smoothSolver:  Solving for Uy, Initial residual = 4.06951e-08, Final residual = 1.15335e-09, No Iterations 1
smoothSolver:  Solving for Uz, Initial residual = 2.3201e-08, Final residual = 5.71133e-10, No Iterations 1
GAMG:  Solving for p, Initial residual = 9.05084e-08, Final residual = 9.05084e-08, No Iterations 0
time step continuity errors : sum local = 8.61166e-06, global = -2.01589e-06, cumulative = -0.000908314
smoothSolver:  Solving for omega, Initial residual = 8.52982e-09, Final residual = 8.52982e-09, No Iterations 0
smoothSolver:  Solving for k, Initial residual = 7.03383e-09, Final residual = 7.03383e-09, No Iterations 0
ExecutionTime = 2.04 s  ClockTime = 2 s

forceCoeffs forceCoeffs1 write:
    Coefficient	Total	Pressure	Viscous	Internal
    Cd:	0	0	0	0
    Cd(f):	0	0	0	0
    Cd(r):	0	0	0	0
    Cl:	0	0	0	0
    Cl(f):	0	0	0	0
    Cl(r):	0	0	0	0
    CmPitch:	0	0	0	0
    CmRoll:	0	0	0	0
    CmYaw:	0	0	0	0
    Cs:	0	0	0	0
    Cs(f):	0	0	0	0
    Cs(r):	0	0	0	0

    writing force and moment coefficient files.

Time = 491

smoothSolver:  Solving for Ux, Initial residual = 7.66379e-09, Final residual = 7.66379e-09, No Iterations 0
smoothSolver:  Solving for Uy, Initial residual = 3.38803e-08, Final residual = 1.17199e-09, No Iterations 1
smoothSolver:  Solving for Uz, Initial residual = 2.26321e-08, Final residual = 4.7057e-10, No Iterations 1
GAMG:  Solving for p, Initial residual = 9.0516e-08, Final residual = 9.0516e-08, No Iterations 0
time step continuity errors : sum local = 8.61239e-06, global = -2.0161e-06, cumulative = -0.000910331
smoothSolver:  Solving for omega, Initial residual = 8.52719e-09, Final residual = 8.52719e-09, No Iterations 0
smoothSolver:  Solving for k, Initial residual = 7.28612e-09, Final residual = 7.28612e-09, No Iterations 0
ExecutionTime = 2.04 s  ClockTime = 2 s

forceCoeffs forceCoeffs1 write:
    Coefficient	Total	Pressure	Viscous	Internal
    Cd:	0	0	0	0
    Cd(f):	0	0	0	0
    Cd(r):	0	0	0	0
    Cl:	0	0	0	0
    Cl(f):	0	0	0	0
    Cl(r):	0	0	0	0
    CmPitch:	0	0	0	0
    CmRoll:	0	0	0	0
    CmYaw:	0	0	0	0
    Cs:	0	0	0	0
    Cs(f):	0	0	0	0
    Cs(r):	0	0	0	0

    writing force and moment coefficient files.

Time = 492

smoothSolver:  Solving for Ux, Initial residual = 8.43038e-09, Final residual = 8.43038e-09, No Iterations 0
smoothSolver:  Solving for Uy, Initial residual = 3.45119e-08, Final residual = 9.95631e-10, No Iterations 1
smoothSolver:  Solving for Uz, Initial residual = 2.14992e-08, Final residual = 6.0856e-10, No Iterations 1
GAMG:  Solving for p, Initial residual = 9.05159e-08, Final residual = 9.05159e-08, No Iterations 0
time step continuity errors : sum local = 8.61238e-06, global = -2.01642e-06, cumulative = -0.000912347
smoothSolver:  Solving for omega, Initial residual = 8.50741e-09, Final residual = 8.50741e-09, No Iterations 0
smoothSolver:  Solving for k, Initial residual = 7.70348e-09, Final residual = 7.70348e-09, No Iterations 0
ExecutionTime = 2.04 s  ClockTime = 2 s

forceCoeffs forceCoeffs1 write:
    Coefficient	Total	Pressure	Viscous	Internal
    Cd:	0	0	0	0
    Cd(f):	0	0	0	0
    Cd(r):	0	0	0	0
    Cl:	0	0	0	0
    Cl(f):	0	0	0	0
    Cl(r):	0	0	0	0
    CmPitch:	0	0	0	0
    CmRoll:	0	0	0	0
    CmYaw:	0	0	0	0
    Cs:	0	0	0	0
    Cs(f):	0	0	0	0
    Cs(r):	0	0	0	0

    writing force and moment coefficient files.

Time = 493

smoothSolver:  Solving for Ux, Initial residual = 1.01468e-08, Final residual = 2.04652e-10, No Iterations 1
smoothSolver:  Solving for Uy, Initial residual = 4.16346e-08, Final residual = 1.0895e-09, No Iterations 1
smoothSolver:  Solving for Uz, Initial residual = 2.56924e-08, Final residual = 5.95255e-10, No Iterations 1
GAMG:  Solving for p, Initial residual = 9.0501e-08, Final residual = 9.0501e-08, No Iterations 0
time step continuity errors : sum local = 8.61096e-06, global = -2.01609e-06, cumulative = -0.000914363
smoothSolver:  Solving for omega, Initial residual = 8.49957e-09, Final residual = 8.49957e-09, No Iterations 0
smoothSolver:  Solving for k, Initial residual = 7.49762e-09, Final residual = 7.49762e-09, No Iterations 0
ExecutionTime = 2.05 s  ClockTime = 2 s

forceCoeffs forceCoeffs1 write:
    Coefficient	Total	Pressure	Viscous	Internal
    Cd:	0	0	0	0
    Cd(f):	0	0	0	0
    Cd(r):	0	0	0	0
    Cl:	0	0	0	0
    Cl(f):	0	0	0	0
    Cl(r):	0	0	0	0
    CmPitch:	0	0	0	0
    CmRoll:	0	0	0	0
    CmYaw:	0	0	0	0
    Cs:	0	0	0	0
    Cs(f):	0	0	0	0
    Cs(r):	0	0	0	0

    writing force and moment coefficient files.

Time = 494

smoothSolver:  Solving for Ux, Initial residual = 5.10271e-09, Final residual = 5.10271e-09, No Iterations 0
smoothSolver:  Solving for Uy, Initial residual = 4.09939e-08, Final residual = 1.31373e-09, No Iterations 1
smoothSolver:  Solving for Uz, Initial residual = 2.42728e-08, Final residual = 6.03219e-10, No Iterations 1
GAMG:  Solving for p, Initial residual = 9.04942e-08, Final residual = 9.04942e-08, No Iterations 0
time step continuity errors : sum local = 8.61032e-06, global = -2.01601e-06, cumulative = -0.000916379
smoothSolver:  Solving for omega, Initial residual = 8.49433e-09, Final residual = 8.49433e-09, No Iterations 0
smoothSolver:  Solving for k, Initial residual = 7.58005e-09, Final residual = 7.58005e-09, No Iterations 0
ExecutionTime = 2.05 s  ClockTime = 2 s

forceCoeffs forceCoeffs1 write:
    Coefficient	Total	Pressure	Viscous	Internal
    Cd:	0	0	0	0
    Cd(f):	0	0	0	0
    Cd(r):	0	0	0	0
    Cl:	0	0	0	0
    Cl(f):	0	0	0	0
    Cl(r):	0	0	0	0
    CmPitch:	0	0	0	0
    CmRoll:	0	0	0	0
    CmYaw:	0	0	0	0
    Cs:	0	0	0	0
    Cs(f):	0	0	0	0
    Cs(r):	0	0	0	0

    writing force and moment coefficient files.

Time = 495

smoothSolver:  Solving for Ux, Initial residual = 6.02117e-09, Final residual = 6.02117e-09, No Iterations 0
smoothSolver:  Solving for Uy, Initial residual = 3.3541e-08, Final residual = 8.87207e-10, No Iterations 1
smoothSolver:  Solving for Uz, Initial residual = 1.97506e-08, Final residual = 4.23291e-10, No Iterations 1
GAMG:  Solving for p, Initial residual = 9.04914e-08, Final residual = 9.04914e-08, No Iterations 0
time step continuity errors : sum local = 8.61005e-06, global = -2.01581e-06, cumulative = -0.000918395
smoothSolver:  Solving for omega, Initial residual = 8.50171e-09, Final residual = 8.50171e-09, No Iterations 0
smoothSolver:  Solving for k, Initial residual = 7.47249e-09, Final residual = 7.47249e-09, No Iterations 0
ExecutionTime = 2.05 s  ClockTime = 2 s

forceCoeffs forceCoeffs1 write:
    Coefficient	Total	Pressure	Viscous	Internal
    Cd:	0	0	0	0
    Cd(f):	0	0	0	0
    Cd(r):	0	0	0	0
    Cl:	0	0	0	0
    Cl(f):	0	0	0	0
    Cl(r):	0	0	0	0
    CmPitch:	0	0	0	0
    CmRoll:	0	0	0	0
    CmYaw:	0	0	0	0
    Cs:	0	0	0	0
    Cs(f):	0	0	0	0
    Cs(r):	0	0	0	0

    writing force and moment coefficient files.

Time = 496

smoothSolver:  Solving for Ux, Initial residual = 6.56405e-09, Final residual = 6.56405e-09, No Iterations 0
smoothSolver:  Solving for Uy, Initial residual = 2.80839e-08, Final residual = 8.33889e-10, No Iterations 1
smoothSolver:  Solving for Uz, Initial residual = 1.76377e-08, Final residual = 5.36467e-10, No Iterations 1
GAMG:  Solving for p, Initial residual = 9.04961e-08, Final residual = 9.04961e-08, No Iterations 0
time step continuity errors : sum local = 8.61049e-06, global = -2.01565e-06, cumulative = -0.000920411
smoothSolver:  Solving for omega, Initial residual = 8.51976e-09, Final residual = 8.51976e-09, No Iterations 0
smoothSolver:  Solving for k, Initial residual = 7.18694e-09, Final residual = 7.18694e-09, No Iterations 0
ExecutionTime = 2.06 s  ClockTime = 2 s

forceCoeffs forceCoeffs1 write:
    Coefficient	Total	Pressure	Viscous	Internal
    Cd:	0	0	0	0
    Cd(f):	0	0	0	0
    Cd(r):	0	0	0	0
    Cl:	0	0	0	0
    Cl(f):	0	0	0	0
    Cl(r):	0	0	0	0
    CmPitch:	0	0	0	0
    CmRoll:	0	0	0	0
    CmYaw:	0	0	0	0
    Cs:	0	0	0	0
    Cs(f):	0	0	0	0
    Cs(r):	0	0	0	0

    writing force and moment coefficient files.

Time = 497

smoothSolver:  Solving for Ux, Initial residual = 7.62363e-09, Final residual = 7.62363e-09, No Iterations 0
smoothSolver:  Solving for Uy, Initial residual = 3.51766e-08, Final residual = 1.0846e-09, No Iterations 1
smoothSolver:  Solving for Uz, Initial residual = 1.98731e-08, Final residual = 5.5642e-10, No Iterations 1
GAMG:  Solving for p, Initial residual = 9.05068e-08, Final residual = 9.05068e-08, No Iterations 0
time step continuity errors : sum local = 8.61151e-06, global = -2.01569e-06, cumulative = -0.000922426
smoothSolver:  Solving for omega, Initial residual = 8.53497e-09, Final residual = 8.53497e-09, No Iterations 0
smoothSolver:  Solving for k, Initial residual = 7.02876e-09, Final residual = 7.02876e-09, No Iterations 0
ExecutionTime = 2.06 s  ClockTime = 2 s

forceCoeffs forceCoeffs1 write:
    Coefficient	Total	Pressure	Viscous	Internal
    Cd:	0	0	0	0
    Cd(f):	0	0	0	0
    Cd(r):	0	0	0	0
    Cl:	0	0	0	0
    Cl(f):	0	0	0	0
    Cl(r):	0	0	0	0
    CmPitch:	0	0	0	0
    CmRoll:	0	0	0	0
    CmYaw:	0	0	0	0
    Cs:	0	0	0	0
    Cs(f):	0	0	0	0
    Cs(r):	0	0	0	0

    writing force and moment coefficient files.

Time = 498

smoothSolver:  Solving for Ux, Initial residual = 8.61058e-09, Final residual = 8.61058e-09, No Iterations 0
smoothSolver:  Solving for Uy, Initial residual = 4.25349e-08, Final residual = 1.08942e-09, No Iterations 1
smoothSolver:  Solving for Uz, Initial residual = 2.19714e-08, Final residual = 4.86688e-10, No Iterations 1
GAMG:  Solving for p, Initial residual = 9.05171e-08, Final residual = 9.05171e-08, No Iterations 0
time step continuity errors : sum local = 8.61249e-06, global = -2.016e-06, cumulative = -0.000924442
smoothSolver:  Solving for omega, Initial residual = 8.53209e-09, Final residual = 8.53209e-09, No Iterations 0
smoothSolver:  Solving for k, Initial residual = 7.30609e-09, Final residual = 7.30609e-09, No Iterations 0
ExecutionTime = 2.07 s  ClockTime = 2 s

forceCoeffs forceCoeffs1 write:
    Coefficient	Total	Pressure	Viscous	Internal
    Cd:	0	0	0	0
    Cd(f):	0	0	0	0
    Cd(r):	0	0	0	0
    Cl:	0	0	0	0
    Cl(f):	0	0	0	0
    Cl(r):	0	0	0	0
    CmPitch:	0	0	0	0
    CmRoll:	0	0	0	0
    CmYaw:	0	0	0	0
    Cs:	0	0	0	0
    Cs(f):	0	0	0	0
    Cs(r):	0	0	0	0

    writing force and moment coefficient files.

Time = 499

smoothSolver:  Solving for Ux, Initial residual = 9.04193e-09, Final residual = 9.04193e-09, No Iterations 0
smoothSolver:  Solving for Uy, Initial residual = 4.32658e-08, Final residual = 9.27092e-10, No Iterations 1
smoothSolver:  Solving for Uz, Initial residual = 2.2833e-08, Final residual = 4.70253e-10, No Iterations 1
GAMG:  Solving for p, Initial residual = 9.0519e-08, Final residual = 9.0519e-08, No Iterations 0
time step continuity errors : sum local = 8.61267e-06, global = -2.01648e-06, cumulative = -0.000926459
smoothSolver:  Solving for omega, Initial residual = 8.51085e-09, Final residual = 8.51085e-09, No Iterations 0
smoothSolver:  Solving for k, Initial residual = 7.74107e-09, Final residual = 7.74107e-09, No Iterations 0
ExecutionTime = 2.07 s  ClockTime = 2 s

forceCoeffs forceCoeffs1 write:
    Coefficient	Total	Pressure	Viscous	Internal
    Cd:	0	0	0	0
    Cd(f):	0	0	0	0
    Cd(r):	0	0	0	0
    Cl:	0	0	0	0
    Cl(f):	0	0	0	0
    Cl(r):	0	0	0	0
    CmPitch:	0	0	0	0
    CmRoll:	0	0	0	0
    CmYaw:	0	0	0	0
    Cs:	0	0	0	0
    Cs(f):	0	0	0	0
    Cs(r):	0	0	0	0

    writing force and moment coefficient files.

Time = 500

smoothSolver:  Solving for Ux, Initial residual = 1.07723e-08, Final residual = 2.41311e-10, No Iterations 1
smoothSolver:  Solving for Uy, Initial residual = 4.85941e-08, Final residual = 1.37257e-09, No Iterations 1
smoothSolver:  Solving for Uz, Initial residual = 2.67174e-08, Final residual = 5.96841e-10, No Iterations 1
GAMG:  Solving for p, Initial residual = 9.05022e-08, Final residual = 9.05022e-08, No Iterations 0
time step continuity errors : sum local = 8.61108e-06, global = -2.01614e-06, cumulative = -0.000928475
smoothSolver:  Solving for omega, Initial residual = 8.49915e-09, Final residual = 8.49915e-09, No Iterations 0
smoothSolver:  Solving for k, Initial residual = 7.53384e-09, Final residual = 7.53384e-09, No Iterations 0
ExecutionTime = 2.08 s  ClockTime = 2 s

streamLine streamLines write:
    seeded 20 particles
    Tracks:20
    Total samples:1720
nearWallFields near write:
    Sampling fields to 500
    Writing sampled fields to 500
wallBoundedStreamLine wallBoundedStreamLines write:
wallBoundedStreamLine : seeded 0 particles.
    Tracks:0
    Total samples:0
forceCoeffs forceCoeffs1 write:
    Coefficient	Total	Pressure	Viscous	Internal
    Cd:	0	0	0	0
    Cd(f):	0	0	0	0
    Cd(r):	0	0	0	0
    Cl:	0	0	0	0
    Cl(f):	0	0	0	0
    Cl(r):	0	0	0	0
    CmPitch:	0	0	0	0
    CmRoll:	0	0	0	0
    CmYaw:	0	0	0	0
    Cs:	0	0	0	0
    Cs(f):	0	0	0	0
    Cs(r):	0	0	0	0

    writing force and moment coefficient files.

ensightWrite ensightWrite write: ( k omega p U )
End

Finalising parallel run
