/*---------------------------------------------------------------------------*\
| =========                 |                                                 |
| \\      /  F ield         | OpenFOAM: The Open Source CFD Toolbox           |
|  \\    /   O peration     | Version:  2306                                  |
|   \\  /    A nd           | Website:  www.openfoam.com                      |
|    \\/     M anipulation  |                                                 |
\*---------------------------------------------------------------------------*/
Build  : _fbf00d6b-20230626 OPENFOAM=2306 version=2306
Arch   : "LSB;label=32;scalar=64"
Exec   : snappyHexMesh -parallel -decomposeParDict system/decomposeParDict.6 -overwrite
Date   : Jan 29 2024
Time   : 18:19:15
Host   : TheMachine
PID    : 76882
I/O    : uncollated
Case   : /home/adrian/run/TFG_FILES/mbTest
nProcs : 6
Hosts  :
(
    (TheMachine 6)
)
Pstream initialized with:
    floatTransfer      : false
    nProcsSimpleSum    : 0
    nonBlockingExchange: 0 (tuning: 0)
    exchange algorithm : -1
    commsType          : nonBlocking
    polling iterations : 0
trapFpe: Floating point exception trapping enabled (FOAM_SIGFPE).
fileModificationChecking : Monitoring run-time modified files using timeStampMaster (fileModificationSkew 5, maxFileModificationPolls 20)
allowSystemOperations : Allowing user-supplied system call operations

// * * * * * * * * * * * * * * * * * * * * * * * * * * * * * * * * * * * * * //
Create time

Create mesh for time = 0

Read mesh in = 0 s

Overall mesh bounding box  : (-5 -4 0) (15 4 8)
Relative tolerance         : 1e-06
Absolute matching distance : 2.29783e-05

Reading refinement surfaces.
Read refinement surfaces in = 0.23 s

Reading refinement shells.
Refinement level 4 for all cells inside refinementBox
Read refinement shells in = 0 s

Setting refinement level of surface to be consistent with shells.
For geometry motorBike.obj detected 0 uncached triangles out of 331653
Checked shell refinement in = 1.1 s

Reading features.
Read edgeMesh motorBike.eMesh
    points      : 20665
    edges       : 20867
    boundingBox : (-0.241214 -0.337971 -4.232e-05) (1.75115 0.329368 1.21979)

Refinement level according to distance to "motorBike.eMesh" (20665 points, 20867 edges).
    level 6 for all cells within 0 metre.
Read features in = 0.03 s


Determining initial surface intersections
-----------------------------------------

Edge intersection testing:
    Number of edges             : 8100
    Number of edges to retest   : 0
    Number of intersected edges : 0
Edge intersection testing:
    Number of edges             : 8100
    Number of edges to retest   : 8100
    Number of intersected edges : 3
Calculated surface intersections in = 0.01 s

Initial mesh : cells:2500  faces:8100  points:3146
Cells per refinement level:
    0	2500
Setting refinement level of surface to be consistent with curvature.
Checked curvature refinement in = 0 s


Adding patches for surface regions
----------------------------------

Patch Type                Region                        
----- ----                ------                        
motorBike:

5     wall                motorBike_frt-fairing:001%1   
6     wall                motorBike_windshield:002%2    
7     wall                motorBike_rr-wh-rim:005%5     
8     wall                motorBike_rr-wh-rim:010%10    
9     wall                motorBike_fr-wh-rim:011%11    
10    wall                motorBike_fr-wh-brake-disk:012%12
11    wall                motorBike_frame:016-shadow%13 
12    wall                motorBike_rear-susp:014%14    
13    wall                motorBike_rear-susp:014-shadow%15
14    wall                motorBike_frame:016%16        
15    wall                motorBike_rr-wh-rim:005-shadow%17
16    wall                motorBike_rr-wh-chain-hub:022%22
17    wall                motorBike_rearseat%24         
18    wall                motorBike_frt-fairing%25      
19    wall                motorBike_windshield%26       
20    wall                motorBike_headlights%27       
21    wall                motorBike_driversseat%28      
22    wall                motorBike_rear-body%29        
23    wall                motorBike_fuel-tank%30        
24    wall                motorBike_exhaust%31          
25    wall                motorBike_rr-wh-rim%32        
26    wall                motorBike_fr-mud-guard%33     
27    wall                motorBike_fr-wh-rim%34        
28    wall                motorBike_fr-wh-brake-disk%35 
29    wall                motorBike_fr-brake-caliper%36 
30    wall                motorBike_fr-wh-tyre%37       
31    wall                motorBike_hbars%38            
32    wall                motorBike_fr-forks%39         
33    wall                motorBike_chain%40            
34    wall                motorBike_rr-wh-tyre%41       
35    wall                motorBike_square-dial%42      
36    wall                motorBike_round-dial%43       
37    wall                motorBike_dial-holder%44      
38    wall                motorBike_rear-susp%45        
39    wall                motorBike_rear-brake-lights%46
40    wall                motorBike_rear-light-bracket%47
41    wall                motorBike_frame%48            
42    wall                motorBike_rear-mud-guard%49   
43    wall                motorBike_rear-susp-spring-damp%50
44    wall                motorBike_fairing-inner-plate%51
45    wall                motorBike_clutch-housing%52   
46    wall                motorBike_radiator%53         
47    wall                motorBike_water-pipe%54       
48    wall                motorBike_water-pump%55       
49    wall                motorBike_engine%56           
50    wall                motorBike_rear-shock-link%57  
51    wall                motorBike_rear-brake-fluid-pot-bracket%58
52    wall                motorBike_rear-brake-fluid-pot%59
53    wall                motorBike_footpeg%60          
54    wall                motorBike_rr-wh-chain-hub%61  
55    wall                motorBike_rear-brake-caliper%62
56    wall                motorBike_rider-helmet%65     
57    wall                motorBike_rider-visor%66      
58    wall                motorBike_rider-boots%67      
59    wall                motorBike_rider-gloves%68     
60    wall                motorBike_rider-body%69       
61    wall                motorBike_frame:0%70          
62    wall                motorBike_frt-fairing:001-shadow%74
63    wall                motorBike_windshield-shadow%75
64    wall                motorBike_fr-mud-guard-shadow%81
65    wall                motorBike_fr-wh-brake-disk-shadow%83
66    wall                motorBike_rear-mud-guard-shadow%84
67    wall                motorBike_rear-susp-spring-damp-shadow%85
68    wall                motorBike_radiator-shadow%86  
69    wall                motorBike_rear-shock-link-shadow%87
70    wall                motorBike_rear-brake-fluid-pot-bracket-shadow%88
71    wall                motorBike_rr-wh-chain-hub-shadow%89

Added patches in = 0.03 s

Edge intersection testing:
    Number of edges             : 8100
    Number of edges to retest   : 0
    Number of intersected edges : 3
Decomposition method hierarchical [6]

Refinement phase
----------------

Found point (3.0001 3.0001 0.43) in cell 26 on processor 4

Feature refinement iteration 0
------------------------------

Marked for refinement due to explicit features             : 14 cells.
Determined cells to refine in = 0.03 s
Selected for feature refinement : 14 cells (out of 2500)
Edge intersection testing:
    Number of edges             : 8451
    Number of edges to retest   : 521
    Number of intersected edges : 38
Refined mesh in = 0 s
After refinement feature refinement iteration 0 : cells:2598  faces:8451  points:3309
Cells per refinement level:
    0	2486
    1	112
Skipping balancing since max unbalance 0.0762125 is less than allowable 0.1

Feature refinement iteration 1
------------------------------

Marked for refinement due to explicit features             : 36 cells.
Determined cells to refine in = 0.03 s
Selected for feature refinement : 40 cells (out of 2598)
Edge intersection testing:
    Number of edges             : 9417
    Number of edges to retest   : 1393
    Number of intersected edges : 237
Refined mesh in = 0 s
After refinement feature refinement iteration 1 : cells:2878  faces:9417  points:3728
Cells per refinement level:
    0	2482
    1	108
    2	288
Balanced mesh in = 0.01 s
After balancing feature refinement iteration 1 : cells:2878  faces:9417  points:3728
Cells per refinement level:
    0	2482
    1	108
    2	288

Feature refinement iteration 2
------------------------------

Marked for refinement due to explicit features             : 167 cells.
Determined cells to refine in = 0.03 s
Selected for feature refinement : 221 cells (out of 2878)
Edge intersection testing:
    Number of edges             : 14586
    Number of edges to retest   : 6684
    Number of intersected edges : 1149
Refined mesh in = 0.01 s
After refinement feature refinement iteration 2 : cells:4425  faces:14586  points:5831
Cells per refinement level:
    0	2465
    1	207
    2	417
    3	1336
Balanced mesh in = 0.02 s
After balancing feature refinement iteration 2 : cells:4425  faces:14586  points:5831
Cells per refinement level:
    0	2465
    1	207
    2	417
    3	1336

Feature refinement iteration 3
------------------------------

Marked for refinement due to explicit features             : 720 cells.
Determined cells to refine in = 0.04 s
Selected for feature refinement : 828 cells (out of 4425)
Edge intersection testing:
    Number of edges             : 33939
    Number of edges to retest   : 25114
    Number of intersected edges : 4833
Refined mesh in = 0.02 s
After refinement feature refinement iteration 3 : cells:10221  faces:33939  points:13617
Cells per refinement level:
    0	2462
    1	215
    2	456
    3	1328
    4	5760
Balanced mesh in = 0.04 s
After balancing feature refinement iteration 3 : cells:10221  faces:33939  points:13617
Cells per refinement level:
    0	2462
    1	215
    2	456
    3	1328
    4	5760

Feature refinement iteration 4
------------------------------

Marked for refinement due to explicit features             : 2587 cells.
Determined cells to refine in = 0.04 s
Selected for feature refinement : 3098 cells (out of 10221)
Edge intersection testing:
    Number of edges             : 108000
    Number of edges to retest   : 97739
    Number of intersected edges : 16503
Refined mesh in = 0.07 s
After refinement feature refinement iteration 4 : cells:31907  faces:108000  points:44565
Cells per refinement level:
    0	2460
    1	226
    2	430
    3	1418
    4	6677
    5	20696
Balanced mesh in = 0.08 s
After balancing feature refinement iteration 4 : cells:31907  faces:108000  points:44565
Cells per refinement level:
    0	2460
    1	226
    2	430
    3	1418
    4	6677
    5	20696

Feature refinement iteration 5
------------------------------

Marked for refinement due to explicit features             : 7282 cells.
Determined cells to refine in = 0.1 s
Selected for feature refinement : 9435 cells (out of 31907)
Edge intersection testing:
    Number of edges             : 337479
    Number of edges to retest   : 319929
    Number of intersected edges : 50724
Refined mesh in = 0.15 s
After refinement feature refinement iteration 5 : cells:97952  faces:337479  points:144332
Cells per refinement level:
    0	2458
    1	239
    2	436
    3	1404
    4	5969
    5	29190
    6	58256
Balanced mesh in = 0.23 s
After balancing feature refinement iteration 5 : cells:97952  faces:337479  points:144332
Cells per refinement level:
    0	2458
    1	239
    2	436
    3	1404
    4	5969
    5	29190
    6	58256

Feature refinement iteration 6
------------------------------

Marked for refinement due to explicit features             : 0 cells.
Determined cells to refine in = 0.26 s
Selected for feature refinement : 0 cells (out of 97952)
Stopping refining since too few cells selected.


Surface refinement iteration 0
------------------------------

Marked for refinement due to surface intersection          : 1565 cells.
Marked for refinement due to curvature/regions             : 7671 cells.
Determined cells to refine in = 0.06 s
Selected for refinement : 9815 cells (out of 97952)
Edge intersection testing:
    Number of edges             : 554097
    Number of edges to retest   : 427313
    Number of intersected edges : 71335
Refined mesh in = 0.26 s
After refinement surface refinement iteration 0 : cells:166657  faces:554097  points:221764
Cells per refinement level:
    0	2458
    1	231
    2	470
    3	1470
    4	5429
    5	36975
    6	119624
Balanced mesh in = 0.4 s
After balancing surface refinement iteration 0 : cells:166657  faces:554097  points:221764
Cells per refinement level:
    0	2458
    1	231
    2	470
    3	1470
    4	5429
    5	36975
    6	119624

Surface refinement iteration 1
------------------------------

Marked for refinement due to surface intersection          : 275 cells.
Marked for refinement due to curvature/regions             : 2599 cells.
Determined cells to refine in = 0.09 s
Selected for refinement : 3068 cells (out of 166657)
Edge intersection testing:
    Number of edges             : 623739
    Number of edges to retest   : 146295
    Number of intersected edges : 79164
Refined mesh in = 0.22 s
After refinement surface refinement iteration 1 : cells:188133  faces:623739  points:248293
Cells per refinement level:
    0	2458
    1	231
    2	466
    3	1460
    4	5342
    5	37760
    6	140416
Skipping balancing since max unbalance 0.0559551 is less than allowable 0.1

Surface refinement iteration 2
------------------------------

Marked for refinement due to surface intersection          : 11 cells.
Marked for refinement due to curvature/regions             : 233 cells.
Determined cells to refine in = 0.09 s
Selected for refinement : 270 cells (out of 188133)
Edge intersection testing:
    Number of edges             : 630024
    Number of edges to retest   : 19313
    Number of intersected edges : 79829
Refined mesh in = 0.22 s
After refinement surface refinement iteration 2 : cells:190023  faces:630024  points:250767
Cells per refinement level:
    0	2458
    1	231
    2	465
    3	1465
    4	5333
    5	37791
    6	142280
Skipping balancing since max unbalance 0.0598191 is less than allowable 0.1

Surface refinement iteration 3
------------------------------

Marked for refinement due to surface intersection          : 0 cells.
Marked for refinement due to curvature/regions             : 39 cells.
Determined cells to refine in = 0.09 s
Selected for refinement : 45 cells (out of 190023)
Edge intersection testing:
    Number of edges             : 631053
    Number of edges to retest   : 3203
    Number of intersected edges : 79901
Refined mesh in = 0.19 s
After refinement surface refinement iteration 3 : cells:190338  faces:631053  points:251153
Cells per refinement level:
    0	2458
    1	231
    2	464
    3	1472
    4	5337
    5	37784
    6	142592
Skipping balancing since max unbalance 0.061375 is less than allowable 0.1

Surface refinement iteration 4
------------------------------

Marked for refinement due to surface intersection          : 0 cells.
Marked for refinement due to curvature/regions             : 11 cells.
Determined cells to refine in = 0.08 s
Selected for refinement : 11 cells (out of 190338)
Edge intersection testing:
    Number of edges             : 631305
    Number of edges to retest   : 893
    Number of intersected edges : 79922
Refined mesh in = 0.18 s
After refinement surface refinement iteration 4 : cells:190415  faces:631305  points:251246
Cells per refinement level:
    0	2458
    1	231
    2	464
    3	1472
    4	5337
    5	37773
    6	142680
Skipping balancing since max unbalance 0.0617546 is less than allowable 0.1

Surface refinement iteration 5
------------------------------

Marked for refinement due to surface intersection          : 0 cells.
Marked for refinement due to curvature/regions             : 6 cells.
Determined cells to refine in = 0.09 s
Selected for refinement : 6 cells (out of 190415)
Edge intersection testing:
    Number of edges             : 631437
    Number of edges to retest   : 509
    Number of intersected edges : 79928
Refined mesh in = 0.19 s
After refinement surface refinement iteration 5 : cells:190457  faces:631437  points:251293
Cells per refinement level:
    0	2458
    1	231
    2	464
    3	1472
    4	5337
    5	37767
    6	142728
Skipping balancing since max unbalance 0.0619615 is less than allowable 0.1

Surface refinement iteration 6
------------------------------

Marked for refinement due to surface intersection          : 0 cells.
Marked for refinement due to curvature/regions             : 2 cells.
Determined cells to refine in = 0.09 s
Selected for refinement : 2 cells (out of 190457)
Stopping refining since too few cells selected.


Removing mesh beyond surface intersections
------------------------------------------

Setting cellZones according to locationsInMesh:
Location : (3.0001 3.0001 0.43)
    cellZone : none

For cellZone none found point (3.0001 3.0001 0.43) in global region 0 out of 35 regions.
--> FOAM Warning : 
    From void Foam::meshRefinement::nearestFace(const labelUList&, const Foam::bitSet&, Foam::autoPtr<Foam::mapDistribute>&, Foam::labelList&, Foam::label) const
    in file meshRefinement/meshRefinement.C at line 515
    Did not visit some faces, e.g. face 0 at (-4.2 -3.6 0.4)
Keeping all cells containing inside points
Selected for keeping : 178231 cells.
Edge intersection testing:
    Number of edges             : 604664
    Number of edges to retest   : 28790
    Number of intersected edges : 79928

Shell refinement iteration 0
----------------------------

Marked for refinement due to distance to explicit features : 0 cells.
Marked for refinement due to refinement shells             : 2066 cells.
Determined cells to refine in = 0.32 s
Selected for internal refinement : 25007 cells (out of 178231)
Edge intersection testing:
    Number of edges             : 1128038
    Number of edges to retest   : 990047
    Number of intersected edges : 86886
Refined mesh in = 0.5 s
After refinement shell refinement iteration 0 : cells:353280  faces:1128038  points:418681
Cells per refinement level:
    0	2331
    1	1080
    2	1343
    3	3656
    4	14168
    5	33400
    6	297302
Balanced mesh in = 0.84 s
After balancing shell refinement iteration 0 : cells:353280  faces:1128038  points:418689
Cells per refinement level:
    0	2331
    1	1080
    2	1343
    3	3656
    4	14168
    5	33400
    6	297302

Shell refinement iteration 1
----------------------------

Marked for refinement due to distance to explicit features : 0 cells.
Marked for refinement due to refinement shells             : 4135 cells.
Determined cells to refine in = 0.13 s
Selected for internal refinement : 9061 cells (out of 353280)
Edge intersection testing:
    Number of edges             : 1321235
    Number of edges to retest   : 439833
    Number of intersected edges : 88486
Refined mesh in = 0.49 s
After refinement shell refinement iteration 1 : cells:416707  faces:1321235  points:484886
Cells per refinement level:
    0	2209
    1	1590
    2	4017
    3	9092
    4	37115
    5	38166
    6	324518
Skipping balancing since max unbalance 0.0609469 is less than allowable 0.1

Shell refinement iteration 2
----------------------------

Marked for refinement due to distance to explicit features : 0 cells.
Marked for refinement due to refinement shells             : 8255 cells.
Determined cells to refine in = 0.13 s
Selected for internal refinement : 9397 cells (out of 416707)
Edge intersection testing:
    Number of edges             : 1522439
    Number of edges to retest   : 275938
    Number of intersected edges : 88574
Refined mesh in = 0.54 s
After refinement shell refinement iteration 2 : cells:482486  faces:1522439  points:554533
Cells per refinement level:
    0	2105
    1	2000
    2	4411
    3	27312
    4	82062
    5	39182
    6	325414
Balanced mesh in = 1.22 s
After balancing shell refinement iteration 2 : cells:482486  faces:1522439  points:554546
Cells per refinement level:
    0	2105
    1	2000
    2	4411
    3	27312
    4	82062
    5	39182
    6	325414

Shell refinement iteration 3
----------------------------

Marked for refinement due to distance to explicit features : 0 cells.
Marked for refinement due to refinement shells             : 18472 cells.
Determined cells to refine in = 0.17 s
Selected for internal refinement : 19660 cells (out of 482486)
Edge intersection testing:
    Number of edges             : 1941944
    Number of edges to retest   : 517660
    Number of intersected edges : 88581
Refined mesh in = 0.73 s
After refinement shell refinement iteration 3 : cells:620106  faces:1941944  points:698866
Cells per refinement level:
    0	2088
    1	1902
    2	5050
    3	19018
    4	227319
    5	39227
    6	325502
Balanced mesh in = 1.4 s
After balancing shell refinement iteration 3 : cells:620106  faces:1941944  points:698866
Cells per refinement level:
    0	2088
    1	1902
    2	5050
    3	19018
    4	227319
    5	39227
    6	325502

Shell refinement iteration 4
----------------------------

Marked for refinement due to distance to explicit features : 0 cells.
Marked for refinement due to refinement shells             : 1702 cells.
Determined cells to refine in = 0.2 s
Selected for internal refinement : 2331 cells (out of 620106)
Edge intersection testing:
    Number of edges             : 1991237
    Number of edges to retest   : 98134
    Number of intersected edges : 88581
Refined mesh in = 0.7 s
After refinement shell refinement iteration 4 : cells:636423  faces:1991237  points:715540
Cells per refinement level:
    0	2062
    1	1897
    2	6370
    3	20388
    4	240931
    5	39257
    6	325518
Skipping balancing since max unbalance 0.0539971 is less than allowable 0.1

Shell refinement iteration 5
----------------------------

Marked for refinement due to distance to explicit features : 0 cells.
Marked for refinement due to refinement shells             : 0 cells.
Determined cells to refine in = 0.17 s
Selected for internal refinement : 37 cells (out of 636423)
Edge intersection testing:
    Number of edges             : 1992044
    Number of edges to retest   : 2404
    Number of intersected edges : 88581
Refined mesh in = 0.7 s
After refinement shell refinement iteration 5 : cells:636682  faces:1992044  points:715830
Cells per refinement level:
    0	2042
    1	2040
    2	6506
    3	20388
    4	240931
    5	39257
    6	325518
Skipping balancing since max unbalance 0.0548217 is less than allowable 0.1

Shell refinement iteration 6
----------------------------

Marked for refinement due to distance to explicit features : 0 cells.
Marked for refinement due to refinement shells             : 0 cells.
Determined cells to refine in = 0.16 s
Selected for internal refinement : 3 cells (out of 636682)
Stopping refining since too few cells selected.


Dangling coarse cells refinement iteration 0
--------------------------------------------

Determined cells to refine in = 0.02 s
Selected for refinement : 167 cells (out of 636682)
Edge intersection testing:
    Number of edges             : 1994534
    Number of edges to retest   : 20087
    Number of intersected edges : 88566
Refined mesh in = 0.69 s
After refinement coarse cell refinement iteration 0 : cells:637851  faces:1994534  points:716159
Cells per refinement level:
    0	2042
    1	2040
    2	6506
    3	20388
    4	240927
    5	39126
    6	326822
Skipping balancing since max unbalance 0.0528885 is less than allowable 0.1

Dangling coarse cells refinement iteration 1
--------------------------------------------

Determined cells to refine in = 0.06 s
Selected for refinement : 18 cells (out of 637851)
Edge intersection testing:
    Number of edges             : 1994798
    Number of edges to retest   : 2252
    Number of intersected edges : 88566
Refined mesh in = 0.61 s
After refinement coarse cell refinement iteration 1 : cells:637977  faces:1994798  points:716193
Cells per refinement level:
    0	2042
    1	2040
    2	6506
    3	20388
    4	240927
    5	39108
    6	326966
Skipping balancing since max unbalance 0.0526806 is less than allowable 0.1

Dangling coarse cells refinement iteration 2
--------------------------------------------

Determined cells to refine in = 0.05 s
Selected for refinement : 7 cells (out of 637977)
Stopping refining since too few cells selected.


Dangling coarse cells refinement iteration 0
--------------------------------------------

Determined cells to refine in = 0.01 s
Selected for refinement : 28 cells (out of 637977)
Edge intersection testing:
    Number of edges             : 1995134
    Number of edges to retest   : 3674
    Number of intersected edges : 88566
Refined mesh in = 0.61 s
After refinement coarse cell refinement iteration 0 : cells:638173  faces:1995134  points:716221
Cells per refinement level:
    0	2042
    1	2040
    2	6506
    3	20388
    4	240927
    5	39080
    6	327190
Skipping balancing since max unbalance 0.0523573 is less than allowable 0.1

Dangling coarse cells refinement iteration 1
--------------------------------------------

Determined cells to refine in = 0.05 s
Selected for refinement : 0 cells (out of 638173)
Stopping refining since too few cells selected.


Refinement transition refinement iteration 0
--------------------------------------------

Determined cells to refine in = 0 s
Selected for refinement : 33 cells (out of 638173)
Edge intersection testing:
    Number of edges             : 1995857
    Number of edges to retest   : 3277
    Number of intersected edges : 88639
Refined mesh in = 0.66 s
After refinement interface cell refinement iteration 0 : cells:638404  faces:1995857  points:716473
Cells per refinement level:
    0	2042
    1	2040
    2	6506
    3	20388
    4	240927
    5	39047
    6	327454
Skipping balancing since max unbalance 0.0519765 is less than allowable 0.1

Refinement transition refinement iteration 1
--------------------------------------------

Determined cells to refine in = 0.07 s
Selected for refinement : 4 cells (out of 638404)
Stopping refining since too few cells selected.


Splitting mesh at surface intersections
---------------------------------------

Introducing baffles for 88639 faces that are intersected by the surface.

Setting cellZones according to locationsInMesh:
Location : (3.0001 3.0001 0.43)
    cellZone : none

For cellZone none found point (3.0001 3.0001 0.43) in global region 0 out of 35 regions.
Edge intersection testing:
    Number of edges             : 2084433
    Number of edges to retest   : 485433
    Number of intersected edges : 176817
Created baffles in = 0.77 s


After introducing baffles : cells:638404  faces:2084433  points:716702
Cells per refinement level:
    0	2042
    1	2040
    2	6506
    3	20388
    4	240927
    5	39047
    6	327454

Introducing baffles to block off problem cells
----------------------------------------------

markFacesOnProblemCells : marked 59594 additional internal faces to be converted into baffles.
Analyzed problem cells in = 0.39 s


Introducing baffles to delete problem cells.

Edge intersection testing:
    Number of edges             : 2144027
    Number of edges to retest   : 236668
    Number of intersected edges : 176835
Created baffles in = 0.54 s


After introducing baffles : cells:638404  faces:2144027  points:717529
Cells per refinement level:
    0	2042
    1	2040
    2	6506
    3	20388
    4	240927
    5	39047
    6	327454
Setting cellZones according to locationsInMesh:
Location : (3.0001 3.0001 0.43)
    cellZone : none

For cellZone none found point (3.0001 3.0001 0.43) in global region 0 out of 26494 regions.
Edge intersection testing:
    Number of edges             : 2144027
    Number of edges to retest   : 517148
    Number of intersected edges : 176835

Remove unreachable sections of mesh
-----------------------------------

Keeping all cells containing points 1((3.0001 3.0001 0.43))
Selected for keeping : 552370 cells.
Edge intersection testing:
    Number of edges             : 1762203
    Number of edges to retest   : 0
    Number of intersected edges : 94880
Split mesh in = 1.46 s


After subsetting : cells:552370  faces:1762203  points:642269
Cells per refinement level:
    0	2042
    1	2040
    2	6506
    3	20388
    4	240927
    5	37382
    6	243085

Introducing zones for interfaces
--------------------------------

Setting cellZones according to locationsInMesh:
Location : (3.0001 3.0001 0.43)
    cellZone : none

For cellZone none found point (3.0001 3.0001 0.43) in global region 0 out of 1 regions.
Setting faceZones according to neighbouring cellZones:

Edge intersection testing:
    Number of edges             : 1762203
    Number of edges to retest   : 0
    Number of intersected edges : 94880

Handling cells with snap problems
---------------------------------

Introducing baffles for 94880 faces that are intersected by the surface.

Setting cellZones according to locationsInMesh:
Location : (3.0001 3.0001 0.43)
    cellZone : none

For cellZone none found point (3.0001 3.0001 0.43) in global region 0 out of 1 regions.
Edge intersection testing:
    Number of edges             : 1762203
    Number of edges to retest   : 286137
    Number of intersected edges : 94880
Created baffles in = 1.28 s


After introducing baffles : cells:552370  faces:1762203  points:642269
Cells per refinement level:
    0	2042
    1	2040
    2	6506
    3	20388
    4	240927
    5	37382
    6	243085

Introducing baffles to block off problem cells
----------------------------------------------

markFacesOnProblemCells : marked 69 additional internal faces to be converted into baffles.
Analyzed problem cells in = 0.32 s


Introducing baffles to delete problem cells.

Edge intersection testing:
    Number of edges             : 1762272
    Number of edges to retest   : 356
    Number of intersected edges : 94880
Created baffles in = 0.37 s


After introducing baffles : cells:552370  faces:1762272  points:642269
Cells per refinement level:
    0	2042
    1	2040
    2	6506
    3	20388
    4	240927
    5	37382
    6	243085
Setting cellZones according to locationsInMesh:
Location : (3.0001 3.0001 0.43)
    cellZone : none

For cellZone none found point (3.0001 3.0001 0.43) in global region 0 out of 34 regions.
Edge intersection testing:
    Number of edges             : 1762272
    Number of edges to retest   : 286178
    Number of intersected edges : 94880

Remove unreachable sections of mesh
-----------------------------------

Keeping all cells containing points 1((3.0001 3.0001 0.43))
Selected for keeping : 552337 cells.
Edge intersection testing:
    Number of edges             : 1762074
    Number of edges to retest   : 0
    Number of intersected edges : 94829
Split mesh in = 1.08 s


After subsetting : cells:552337  faces:1762074  points:642218
Cells per refinement level:
    0	2042
    1	2040
    2	6506
    3	20388
    4	240927
    5	37382
    6	243052

Merge free-standing baffles
---------------------------

freeStandingBaffles : detected 786 free-standing baffles out of 13280

freeStandingBaffles : detected 78 planar (within 30 degrees) free-standing baffles out of 786

Detected free-standing baffles : 78
Edge intersection testing:
    Number of edges             : 1761996
    Number of edges to retest   : 78
    Number of intersected edges : 94751

Introducing baffles to block off problem cells
----------------------------------------------

markFacesOnProblemCells : marked 16 additional internal faces to be converted into baffles.
Analyzed problem cells in = 0.84 s


Introducing baffles to delete problem cells.

Edge intersection testing:
    Number of edges             : 1762012
    Number of edges to retest   : 88
    Number of intersected edges : 94751
Created baffles in = 0.37 s


After introducing baffles : cells:552337  faces:1762012  points:642218
Cells per refinement level:
    0	2042
    1	2040
    2	6506
    3	20388
    4	240927
    5	37382
    6	243052

Remove unreachable sections of mesh
-----------------------------------

Keeping all cells containing points 1((3.0001 3.0001 0.43))
Selected for keeping : 552329 cells.
Edge intersection testing:
    Number of edges             : 1761964
    Number of edges to retest   : 0
    Number of intersected edges : 94738
Merged free-standing baffles in = 0.46 s


dupNonManifoldPoints : Found : 13496 non-manifold points (out of 669009)
Edge intersection testing:
    Number of edges             : 1761964
    Number of edges to retest   : 0
    Number of intersected edges : 94738
Detected unsplittable baffles : 155
Edge intersection testing:
    Number of edges             : 1761809
    Number of edges to retest   : 155
    Number of intersected edges : 94583
Merged free-standing baffles in = 1 s.

Merge refined boundary faces
----------------------------

Merging 131 sets of faces.

Edge intersection testing:
    Number of edges             : 1761602
    Number of edges to retest   : 1154
    Number of intersected edges : 94378

Undo iteration 0
----------------
Checking faces in error :
    non-orthogonality > 65  degrees                        : 0
    faces with face pyramid volume < 1e-13                 : 0
    faces with face-decomposition tet quality < 1e-15      : 0
    faces with concavity > 80  degrees                     : 0
    faces with skewness > 4   (internal) or 20  (boundary) : 0
    faces with interpolation weights (0..1)  < 0.02        : 0
    faces with volume ratio of neighbour cells < 0.01      : 0
    faces with face twist < 0.02                           : 0
    faces on cells with determinant < 0.001                : 0

Merging all points on surface that
- are used by only two boundary faces and
- make an angle with a cosine of more than 0.707107.

Removing 169 straight edge points ...

Edge intersection testing:
    Number of edges             : 1761602
    Number of edges to retest   : 1321
    Number of intersected edges : 94378

Undo iteration 0
----------------
Checking faces in error :
    non-orthogonality > 65  degrees                        : 0
    faces with face pyramid volume < 1e-13                 : 0
    faces with face-decomposition tet quality < 1e-15      : 0
    faces with concavity > 80  degrees                     : 0
    faces with skewness > 4   (internal) or 20  (boundary) : 0
    faces with interpolation weights (0..1)  < 0.02        : 0
    faces with volume ratio of neighbour cells < 0.01      : 0
    faces with face twist < 0.02                           : 0
    faces on cells with determinant < 0.001                : 0

Doing final balancing
---------------------

Found 0 zoned faces to keep together.
Found 0 separated coupled faces to keep together.
Refined mesh : cells:552329  faces:1761602  points:655244
Cells per refinement level:
    0	2042
    1	2040
    2	6506
    3	20388
    4	240927
    5	37382
    6	243044
Writing mesh to time constant
Wrote mesh in = 3.06 s.
Mesh refined in = 26.58 s.

Morphing phase
--------------

Duplicating 0 points on faceZones of type boundary
Snapping to features in 10 iterations ...
Constructing mesh displacer ...
Using mesh parameters 
{
    maxNonOrtho     65;
    maxBoundarySkewness 20;
    maxInternalSkewness 4;
    maxConcave      80;
    minVol          1e-13;
    minTetQuality   1e-15;
    minArea         -1;
    minTwist        0.02;
    minDeterminant  0.001;
    minFaceWeight   0.02;
    minVolRatio     0.01;
    minTriangleTwist -1;
    minEdgeLength   -1;
    nSmoothScale    4;
    errorReduction  0.75;
}


Checking initial mesh ...
Checking faces in error :
    non-orthogonality > 65  degrees                        : 0
    faces with face pyramid volume < 1e-13                 : 0
    faces with face-decomposition tet quality < 1e-15      : 0
    faces with concavity > 80  degrees                     : 0
    faces with skewness > 4   (internal) or 20  (boundary) : 0
    faces with interpolation weights (0..1)  < 0.02        : 0
    faces with volume ratio of neighbour cells < 0.01      : 0
    faces with face twist < 0.02                           : 0
    faces on cells with determinant < 0.001                : 0
Detected 0 illegal faces (concave, zero area or negative cell pyramid volume)
Checked initial mesh in = 0.41 s


Smoothing patch points ...
Smoothing iteration 0
Found 27073 non-manifold point(s).

Scaling iteration 0
Moving mesh using displacement scaling : min:1  max:1
Checking faces in error :
    non-orthogonality > 65  degrees                        : 0
    faces with face pyramid volume < 1e-13                 : 0
    faces with face-decomposition tet quality < 1e-15      : 0
    faces with concavity > 80  degrees                     : 0
    faces with skewness > 4   (internal) or 20  (boundary) : 0
    faces with interpolation weights (0..1)  < 0.02        : 0
    faces with volume ratio of neighbour cells < 0.01      : 0
    faces with face twist < 0.02                           : 0
    faces on cells with determinant < 0.001                : 0
Successfully moved mesh

Smoothing iteration 1
Found 0 non-manifold point(s).

Scaling iteration 0
Moving mesh using displacement scaling : min:1  max:1
Checking faces in error :
    non-orthogonality > 65  degrees                        : 0
    faces with face pyramid volume < 1e-13                 : 0
    faces with face-decomposition tet quality < 1e-15      : 0
    faces with concavity > 80  degrees                     : 0
    faces with skewness > 4   (internal) or 20  (boundary) : 0
    faces with interpolation weights (0..1)  < 0.02        : 0
    faces with volume ratio of neighbour cells < 0.01      : 0
    faces with face twist < 0.02                           : 1
    faces on cells with determinant < 0.001                : 0

Scaling iteration 1
Moving mesh using displacement scaling : min:0.75  max:1
Checking faces in error :
    non-orthogonality > 65  degrees                        : 0
    faces with face pyramid volume < 1e-13                 : 0
    faces with face-decomposition tet quality < 1e-15      : 0
    faces with concavity > 80  degrees                     : 0
    faces with skewness > 4   (internal) or 20  (boundary) : 0
    faces with interpolation weights (0..1)  < 0.02        : 0
    faces with volume ratio of neighbour cells < 0.01      : 0
    faces with face twist < 0.02                           : 0
    faces on cells with determinant < 0.001                : 0
Successfully moved mesh

Smoothing iteration 2
Found 0 non-manifold point(s).

Scaling iteration 0
Moving mesh using displacement scaling : min:1  max:1
Checking faces in error :
    non-orthogonality > 65  degrees                        : 0
    faces with face pyramid volume < 1e-13                 : 0
    faces with face-decomposition tet quality < 1e-15      : 0
    faces with concavity > 80  degrees                     : 0
    faces with skewness > 4   (internal) or 20  (boundary) : 0
    faces with interpolation weights (0..1)  < 0.02        : 0
    faces with volume ratio of neighbour cells < 0.01      : 0
    faces with face twist < 0.02                           : 1
    faces on cells with determinant < 0.001                : 0

Scaling iteration 1
Moving mesh using displacement scaling : min:0.75  max:1
Checking faces in error :
    non-orthogonality > 65  degrees                        : 0
    faces with face pyramid volume < 1e-13                 : 0
    faces with face-decomposition tet quality < 1e-15      : 0
    faces with concavity > 80  degrees                     : 0
    faces with skewness > 4   (internal) or 20  (boundary) : 0
    faces with interpolation weights (0..1)  < 0.02        : 0
    faces with volume ratio of neighbour cells < 0.01      : 0
    faces with face twist < 0.02                           : 0
    faces on cells with determinant < 0.001                : 0
Successfully moved mesh

Patch points smoothed in = 1.65 s



Morph iteration 0
-----------------
Calculating patchDisplacement as distance to nearest surface point ...
    non-zone points : attract to nearest of all non-zone surfaces
    zone points     : attract to zone surface only

Wanted displacement : average:0.00295609 min:1.74925e-08 max:0.0175222
Calculated surface displacement in = 0.08 s


Detecting near surfaces ...
Overriding nearest with intersection of close gaps at 170 out of 100421 points.
Overriding displacement on features :
   implicit features    : false
   explicit features    : true
   multi-patch features : false

Detected 1439 baffle edges out of 197912 edges.
Baffle points     : 1675 of which attracted to :
    feature point : 0
    feature edge  : 1675
    rest          : 0

Initially selected 29196 mesh points out of 100421 for reverse attraction.
Selected 60812 mesh points out of 100421 for reverse attraction.
Stringing feature edges : changed 2553 points
Stringing feature edges : changed 223 points
Stringing feature edges : changed 73 points
Stringing feature edges : changed 27 points
Stringing feature edges : changed 19 points
Stringing feature edges : changed 8 points
Stringing feature edges : changed 6 points
Stringing feature edges : changed 2 points
Stringing feature edges : changed 0 points
Attraction:
    linear   : max:(-0.000728029 0.0102693 0.0141788) avg:(8.84676e-06 -4.15785e-05 7.96886e-05)
    feature  : max:(0.0496302 -0.0181547 -9.56846e-06) avg:(1.53308e-05 -1.89189e-05 -1.17838e-05)
Feature analysis : total master points :97565 of which attracted to :
    feature point   : 1282
    feature edge    : 14525
    nearest surface : 0
    rest            : 81758

--> FOAM Warning : Displacement (6.47031e-05 -3.19249e-06 0.000542997) at mesh point 20590 coord (0.39455 -0.0627046 0.360969) points through the surrounding patch faces
Smoothing displacement ...
Iteration 0
Iteration 10
Iteration 20
Displacement smoothed in = 1.19 s


Moving mesh ...

Iteration 0
Moving mesh using displacement scaling : min:1  max:1
Checking faces in error :
    non-orthogonality > 65  degrees                        : 0
    faces with face pyramid volume < 1e-13                 : 0
    faces with face-decomposition tet quality < 1e-15      : 0
    faces with concavity > 80  degrees                     : 0
    faces with skewness > 4   (internal) or 20  (boundary) : 0
    faces with interpolation weights (0..1)  < 0.02        : 0
    faces with volume ratio of neighbour cells < 0.01      : 0
    faces with face twist < 0.02                           : 0
    faces on cells with determinant < 0.001                : 0
Successfully moved mesh
Moved mesh in = 0.38 s



Morph iteration 1
-----------------
Calculating patchDisplacement as distance to nearest surface point ...
    non-zone points : attract to nearest of all non-zone surfaces
    zone points     : attract to zone surface only

Wanted displacement : average:0.00274946 min:5.8644e-09 max:0.0167511
Calculated surface displacement in = 0.08 s


Detecting near surfaces ...
Overriding nearest with intersection of close gaps at 176 out of 100421 points.
Overriding displacement on features :
   implicit features    : false
   explicit features    : true
   multi-patch features : false

Detected 1458 baffle edges out of 197912 edges.
Baffle points     : 1676 of which attracted to :
    feature point : 0
    feature edge  : 1676
    rest          : 0

Initially selected 29151 mesh points out of 100421 for reverse attraction.
Selected 60792 mesh points out of 100421 for reverse attraction.
Stringing feature edges : changed 2522 points
Stringing feature edges : changed 201 points
Stringing feature edges : changed 63 points
Stringing feature edges : changed 17 points
Stringing feature edges : changed 13 points
Stringing feature edges : changed 10 points
Stringing feature edges : changed 4 points
Stringing feature edges : changed 1 points
Stringing feature edges : changed 0 points
Attraction:
    linear   : max:(-0.000695993 0.00981741 0.0135548) avg:(5.65469e-06 -3.89106e-05 7.4044e-05)
    feature  : max:(0.0520366 -0.00806934 -7.50757e-06) avg:(1.5646e-05 -1.82612e-05 -1.0568e-05)
Feature analysis : total master points :97565 of which attracted to :
    feature point   : 1296
    feature edge    : 14475
    nearest surface : 0
    rest            : 81794

--> FOAM Warning : Displacement (8.62578e-05 -2.15719e-05 -4.63333e-05) at mesh point 20590 coord (0.394615 -0.0627078 0.361512) points through the surrounding patch faces
Smoothing displacement ...
Iteration 0
Iteration 10
Iteration 20
Displacement smoothed in = 1.22 s


Moving mesh ...

Iteration 0
Moving mesh using displacement scaling : min:1  max:1
Checking faces in error :
    non-orthogonality > 65  degrees                        : 0
    faces with face pyramid volume < 1e-13                 : 0
    faces with face-decomposition tet quality < 1e-15      : 0
    faces with concavity > 80  degrees                     : 0
    faces with skewness > 4   (internal) or 20  (boundary) : 0
    faces with interpolation weights (0..1)  < 0.02        : 0
    faces with volume ratio of neighbour cells < 0.01      : 0
    faces with face twist < 0.02                           : 0
    faces on cells with determinant < 0.001                : 0
Successfully moved mesh
Moved mesh in = 0.4 s



Morph iteration 2
-----------------
Calculating patchDisplacement as distance to nearest surface point ...
    non-zone points : attract to nearest of all non-zone surfaces
    zone points     : attract to zone surface only

Wanted displacement : average:0.00236483 min:7.56018e-10 max:0.0154152
Calculated surface displacement in = 0.07 s


Detecting near surfaces ...
Overriding nearest with intersection of close gaps at 218 out of 100421 points.
Overriding displacement on features :
   implicit features    : false
   explicit features    : true
   multi-patch features : false

Detected 1527 baffle edges out of 197912 edges.
Baffle points     : 1713 of which attracted to :
    feature point : 0
    feature edge  : 1713
    rest          : 0

Initially selected 29374 mesh points out of 100421 for reverse attraction.
Selected 60858 mesh points out of 100421 for reverse attraction.
Stringing feature edges : changed 2434 points
Stringing feature edges : changed 215 points
Stringing feature edges : changed 57 points
Stringing feature edges : changed 21 points
Stringing feature edges : changed 10 points
Stringing feature edges : changed 10 points
Stringing feature edges : changed 7 points
Stringing feature edges : changed 7 points
Stringing feature edges : changed 0 points
Attraction:
    linear   : max:(6.09071e-05 -0.00794325 0.0132109) avg:(1.60594e-06 -3.16623e-05 6.19637e-05)
    feature  : max:(0.0513629 -0.00798032 -7.59994e-06) avg:(1.24756e-05 -1.53676e-05 -8.76564e-06)
Feature analysis : total master points :97565 of which attracted to :
    feature point   : 1274
    feature edge    : 14558
    nearest surface : 0
    rest            : 81733

--> FOAM Warning : Displacement (-3.77927e-05 -3.52929e-05 0.000432148) at mesh point 10780 coord (0.395573 -0.0656031 0.349547) points through the surrounding patch faces
Smoothing displacement ...
Iteration 0
Iteration 10
Iteration 20
Displacement smoothed in = 1.25 s


Moving mesh ...

Iteration 0
Moving mesh using displacement scaling : min:1  max:1
Checking faces in error :
    non-orthogonality > 65  degrees                        : 0
    faces with face pyramid volume < 1e-13                 : 0
    faces with face-decomposition tet quality < 1e-15      : 0
    faces with concavity > 80  degrees                     : 0
    faces with skewness > 4   (internal) or 20  (boundary) : 0
    faces with interpolation weights (0..1)  < 0.02        : 0
    faces with volume ratio of neighbour cells < 0.01      : 0
    faces with face twist < 0.02                           : 0
    faces on cells with determinant < 0.001                : 0
Successfully moved mesh
Moved mesh in = 0.38 s



Morph iteration 3
-----------------
Calculating patchDisplacement as distance to nearest surface point ...
    non-zone points : attract to nearest of all non-zone surfaces
    zone points     : attract to zone surface only

Wanted displacement : average:0.00187668 min:1.76571e-08 max:0.015138
Calculated surface displacement in = 0.07 s


Detecting near surfaces ...
Overriding nearest with intersection of close gaps at 281 out of 100421 points.
Overriding displacement on features :
   implicit features    : false
   explicit features    : true
   multi-patch features : false

Detected 1622 baffle edges out of 197912 edges.
Baffle points     : 1783 of which attracted to :
    feature point : 0
    feature edge  : 1783
    rest          : 0

Initially selected 29778 mesh points out of 100421 for reverse attraction.
Selected 61034 mesh points out of 100421 for reverse attraction.
Stringing feature edges : changed 2389 points
Stringing feature edges : changed 214 points
Stringing feature edges : changed 74 points
Stringing feature edges : changed 29 points
Stringing feature edges : changed 18 points
Stringing feature edges : changed 18 points
Stringing feature edges : changed 12 points
Stringing feature edges : changed 2 points
Stringing feature edges : changed 1 points
Stringing feature edges : changed 2 points
Stringing feature edges : changed 0 points
Attraction:
    linear   : max:(0.0130986 0.00131058 -0.00747444) avg:(-3.01551e-06 -2.20496e-05 4.55806e-05)
    feature  : max:(0.050176 -0.00782547 -7.74319e-06) avg:(7.85638e-06 -1.22738e-05 -8.11381e-06)
Feature analysis : total master points :97565 of which attracted to :
    feature point   : 1296
    feature edge    : 14692
    nearest surface : 0
    rest            : 81577

--> FOAM Warning : Displacement (0.000297625 -0.00116699 -0.000408532) at mesh point 10780 coord (0.395535 -0.0656384 0.349979) points through the surrounding patch faces
Smoothing displacement ...
Iteration 0
Iteration 10
Iteration 20
Displacement smoothed in = 1.16 s


Moving mesh ...

Iteration 0
Moving mesh using displacement scaling : min:1  max:1
Checking faces in error :
    non-orthogonality > 65  degrees                        : 0
    faces with face pyramid volume < 1e-13                 : 0
    faces with face-decomposition tet quality < 1e-15      : 7
    faces with concavity > 80  degrees                     : 0
    faces with skewness > 4   (internal) or 20  (boundary) : 0
    faces with interpolation weights (0..1)  < 0.02        : 0
    faces with volume ratio of neighbour cells < 0.01      : 0
    faces with face twist < 0.02                           : 3
    faces on cells with determinant < 0.001                : 0

Iteration 1
Moving mesh using displacement scaling : min:0.75  max:1
Checking faces in error :
    non-orthogonality > 65  degrees                        : 0
    faces with face pyramid volume < 1e-13                 : 0
    faces with face-decomposition tet quality < 1e-15      : 6
    faces with concavity > 80  degrees                     : 0
    faces with skewness > 4   (internal) or 20  (boundary) : 0
    faces with interpolation weights (0..1)  < 0.02        : 0
    faces with volume ratio of neighbour cells < 0.01      : 0
    faces with face twist < 0.02                           : 1
    faces on cells with determinant < 0.001                : 0

Iteration 2
Moving mesh using displacement scaling : min:0.5625  max:1
Checking faces in error :
    non-orthogonality > 65  degrees                        : 0
    faces with face pyramid volume < 1e-13                 : 0
    faces with face-decomposition tet quality < 1e-15      : 2
    faces with concavity > 80  degrees                     : 0
    faces with skewness > 4   (internal) or 20  (boundary) : 0
    faces with interpolation weights (0..1)  < 0.02        : 0
    faces with volume ratio of neighbour cells < 0.01      : 0
    faces with face twist < 0.02                           : 2
    faces on cells with determinant < 0.001                : 0

Iteration 3
Moving mesh using displacement scaling : min:0.421875  max:1
Checking faces in error :
    non-orthogonality > 65  degrees                        : 0
    faces with face pyramid volume < 1e-13                 : 0
    faces with face-decomposition tet quality < 1e-15      : 1
    faces with concavity > 80  degrees                     : 0
    faces with skewness > 4   (internal) or 20  (boundary) : 0
    faces with interpolation weights (0..1)  < 0.02        : 0
    faces with volume ratio of neighbour cells < 0.01      : 0
    faces with face twist < 0.02                           : 1
    faces on cells with determinant < 0.001                : 0

Iteration 4
Moving mesh using displacement scaling : min:0.316406  max:1
Checking faces in error :
    non-orthogonality > 65  degrees                        : 0
    faces with face pyramid volume < 1e-13                 : 0
    faces with face-decomposition tet quality < 1e-15      : 1
    faces with concavity > 80  degrees                     : 0
    faces with skewness > 4   (internal) or 20  (boundary) : 0
    faces with interpolation weights (0..1)  < 0.02        : 0
    faces with volume ratio of neighbour cells < 0.01      : 0
    faces with face twist < 0.02                           : 0
    faces on cells with determinant < 0.001                : 0

Iteration 5
Displacement scaling for error reduction set to 0.
Moving mesh using displacement scaling : min:0.237305  max:1
Checking faces in error :
    non-orthogonality > 65  degrees                        : 0
    faces with face pyramid volume < 1e-13                 : 0
    faces with face-decomposition tet quality < 1e-15      : 1
    faces with concavity > 80  degrees                     : 0
    faces with skewness > 4   (internal) or 20  (boundary) : 0
    faces with interpolation weights (0..1)  < 0.02        : 0
    faces with volume ratio of neighbour cells < 0.01      : 0
    faces with face twist < 0.02                           : 0
    faces on cells with determinant < 0.001                : 0

Iteration 6
Moving mesh using displacement scaling : min:0  max:1
Checking faces in error :
    non-orthogonality > 65  degrees                        : 0
    faces with face pyramid volume < 1e-13                 : 0
    faces with face-decomposition tet quality < 1e-15      : 0
    faces with concavity > 80  degrees                     : 0
    faces with skewness > 4   (internal) or 20  (boundary) : 0
    faces with interpolation weights (0..1)  < 0.02        : 0
    faces with volume ratio of neighbour cells < 0.01      : 0
    faces with face twist < 0.02                           : 0
    faces on cells with determinant < 0.001                : 0
Successfully moved mesh
Moved mesh in = 1.37 s



Morph iteration 4
-----------------
Calculating patchDisplacement as distance to nearest surface point ...
    non-zone points : attract to nearest of all non-zone surfaces
    zone points     : attract to zone surface only

Wanted displacement : average:0.00137278 min:1.05943e-08 max:0.0153084
Calculated surface displacement in = 0.05 s


Detecting near surfaces ...
Overriding nearest with intersection of close gaps at 393 out of 100421 points.
Overriding displacement on features :
   implicit features    : false
   explicit features    : true
   multi-patch features : false

Detected 1637 baffle edges out of 197912 edges.
Baffle points     : 1784 of which attracted to :
    feature point : 0
    feature edge  : 1784
    rest          : 0

Initially selected 29853 mesh points out of 100421 for reverse attraction.
Selected 61045 mesh points out of 100421 for reverse attraction.
Stringing feature edges : changed 2319 points
Stringing feature edges : changed 227 points
Stringing feature edges : changed 74 points
Stringing feature edges : changed 29 points
Stringing feature edges : changed 18 points
Stringing feature edges : changed 11 points
Stringing feature edges : changed 6 points
Stringing feature edges : changed 3 points
Stringing feature edges : changed 3 points
Stringing feature edges : changed 1 points
Stringing feature edges : changed 0 points
Attraction:
    linear   : max:(-0.0134775 0.0008191 0.00721341) avg:(-7.32122e-06 -1.36364e-05 2.90163e-05)
    feature  : max:(0.0446029 -0.00293222 -0.00163345) avg:(1.02299e-05 -1.1987e-05 -9.15104e-06)
Feature analysis : total master points :97565 of which attracted to :
    feature point   : 1299
    feature edge    : 14797
    nearest surface : 0
    rest            : 81469

--> FOAM Warning : Displacement (0.000900865 -0.000628817 -0.00134085) at mesh point 10780 coord (0.395832 -0.0668054 0.34957) points through the surrounding patch faces
Smoothing displacement ...
Iteration 0
Iteration 10
Iteration 20
Displacement smoothed in = 1.25 s


Moving mesh ...

Iteration 0
Moving mesh using displacement scaling : min:1  max:1
Checking faces in error :
    non-orthogonality > 65  degrees                        : 0
    faces with face pyramid volume < 1e-13                 : 2
    faces with face-decomposition tet quality < 1e-15      : 80
    faces with concavity > 80  degrees                     : 0
    faces with skewness > 4   (internal) or 20  (boundary) : 0
    faces with interpolation weights (0..1)  < 0.02        : 0
    faces with volume ratio of neighbour cells < 0.01      : 0
    faces with face twist < 0.02                           : 14
    faces on cells with determinant < 0.001                : 0

Iteration 1
Moving mesh using displacement scaling : min:0.75  max:1
Checking faces in error :
    non-orthogonality > 65  degrees                        : 0
    faces with face pyramid volume < 1e-13                 : 1
    faces with face-decomposition tet quality < 1e-15      : 48
    faces with concavity > 80  degrees                     : 0
    faces with skewness > 4   (internal) or 20  (boundary) : 0
    faces with interpolation weights (0..1)  < 0.02        : 0
    faces with volume ratio of neighbour cells < 0.01      : 0
    faces with face twist < 0.02                           : 19
    faces on cells with determinant < 0.001                : 0

Iteration 2
Moving mesh using displacement scaling : min:0.5625  max:1
Checking faces in error :
    non-orthogonality > 65  degrees                        : 0
    faces with face pyramid volume < 1e-13                 : 0
    faces with face-decomposition tet quality < 1e-15      : 34
    faces with concavity > 80  degrees                     : 0
    faces with skewness > 4   (internal) or 20  (boundary) : 0
    faces with interpolation weights (0..1)  < 0.02        : 0
    faces with volume ratio of neighbour cells < 0.01      : 0
    faces with face twist < 0.02                           : 8
    faces on cells with determinant < 0.001                : 0

Iteration 3
Moving mesh using displacement scaling : min:0.421875  max:1
Checking faces in error :
    non-orthogonality > 65  degrees                        : 0
    faces with face pyramid volume < 1e-13                 : 0
    faces with face-decomposition tet quality < 1e-15      : 19
    faces with concavity > 80  degrees                     : 0
    faces with skewness > 4   (internal) or 20  (boundary) : 0
    faces with interpolation weights (0..1)  < 0.02        : 0
    faces with volume ratio of neighbour cells < 0.01      : 0
    faces with face twist < 0.02                           : 12
    faces on cells with determinant < 0.001                : 0

Iteration 4
Moving mesh using displacement scaling : min:0.316406  max:1
Checking faces in error :
    non-orthogonality > 65  degrees                        : 0
    faces with face pyramid volume < 1e-13                 : 0
    faces with face-decomposition tet quality < 1e-15      : 14
    faces with concavity > 80  degrees                     : 0
    faces with skewness > 4   (internal) or 20  (boundary) : 0
    faces with interpolation weights (0..1)  < 0.02        : 0
    faces with volume ratio of neighbour cells < 0.01      : 0
    faces with face twist < 0.02                           : 4
    faces on cells with determinant < 0.001                : 0

Iteration 5
Displacement scaling for error reduction set to 0.
Moving mesh using displacement scaling : min:0.237305  max:1
Checking faces in error :
    non-orthogonality > 65  degrees                        : 0
    faces with face pyramid volume < 1e-13                 : 0
    faces with face-decomposition tet quality < 1e-15      : 13
    faces with concavity > 80  degrees                     : 0
    faces with skewness > 4   (internal) or 20  (boundary) : 0
    faces with interpolation weights (0..1)  < 0.02        : 0
    faces with volume ratio of neighbour cells < 0.01      : 0
    faces with face twist < 0.02                           : 3
    faces on cells with determinant < 0.001                : 0

Iteration 6
Moving mesh using displacement scaling : min:0  max:1
Checking faces in error :
    non-orthogonality > 65  degrees                        : 0
    faces with face pyramid volume < 1e-13                 : 0
    faces with face-decomposition tet quality < 1e-15      : 0
    faces with concavity > 80  degrees                     : 0
    faces with skewness > 4   (internal) or 20  (boundary) : 0
    faces with interpolation weights (0..1)  < 0.02        : 0
    faces with volume ratio of neighbour cells < 0.01      : 0
    faces with face twist < 0.02                           : 0
    faces on cells with determinant < 0.001                : 0
Successfully moved mesh
Moved mesh in = 1.51 s



Morph iteration 5
-----------------
Calculating patchDisplacement as distance to nearest surface point ...
    non-zone points : attract to nearest of all non-zone surfaces
    zone points     : attract to zone surface only

Wanted displacement : average:0.000926128 min:5.29714e-09 max:0.0152201
Calculated surface displacement in = 0.05 s


Detecting near surfaces ...
Overriding nearest with intersection of close gaps at 622 out of 100421 points.
Overriding displacement on features :
   implicit features    : false
   explicit features    : true
   multi-patch features : false

Detected 1691 baffle edges out of 197912 edges.
Baffle points     : 1850 of which attracted to :
    feature point : 0
    feature edge  : 1847
    rest          : 3

Initially selected 29966 mesh points out of 100421 for reverse attraction.
Selected 61010 mesh points out of 100421 for reverse attraction.
Stringing feature edges : changed 2210 points
Stringing feature edges : changed 220 points
Stringing feature edges : changed 58 points
Stringing feature edges : changed 22 points
Stringing feature edges : changed 11 points
Stringing feature edges : changed 4 points
Stringing feature edges : changed 0 points
Attraction:
    linear   : max:(0.013204 0.000631197 -0.00754364) avg:(-8.21139e-06 -5.85568e-06 1.41678e-05)
    feature  : max:(0.038886 -0.00239914 0.00010209) avg:(5.68755e-06 -8.471e-06 -6.28477e-06)
Feature analysis : total master points :97565 of which attracted to :
    feature point   : 1325
    feature edge    : 14798
    nearest surface : 0
    rest            : 81442

--> FOAM Warning : Displacement (-7.60945e-05 0.00013275 8.09949e-05) at mesh point 10780 coord (0.396733 -0.0674342 0.348229) points through the surrounding patch faces
Smoothing displacement ...
Iteration 0
Iteration 10
Iteration 20
Displacement smoothed in = 1.29 s


Moving mesh ...

Iteration 0
Moving mesh using displacement scaling : min:1  max:1
Checking faces in error :
    non-orthogonality > 65  degrees                        : 3
    faces with face pyramid volume < 1e-13                 : 42
    faces with face-decomposition tet quality < 1e-15      : 356
    faces with concavity > 80  degrees                     : 3
    faces with skewness > 4   (internal) or 20  (boundary) : 0
    faces with interpolation weights (0..1)  < 0.02        : 0
    faces with volume ratio of neighbour cells < 0.01      : 0
    faces with face twist < 0.02                           : 48
    faces on cells with determinant < 0.001                : 0

Iteration 1
Moving mesh using displacement scaling : min:0.75  max:1
Checking faces in error :
    non-orthogonality > 65  degrees                        : 1
    faces with face pyramid volume < 1e-13                 : 26
    faces with face-decomposition tet quality < 1e-15      : 254
    faces with concavity > 80  degrees                     : 2
    faces with skewness > 4   (internal) or 20  (boundary) : 0
    faces with interpolation weights (0..1)  < 0.02        : 0
    faces with volume ratio of neighbour cells < 0.01      : 0
    faces with face twist < 0.02                           : 30
    faces on cells with determinant < 0.001                : 0

Iteration 2
Moving mesh using displacement scaling : min:0.5625  max:1
Checking faces in error :
    non-orthogonality > 65  degrees                        : 1
    faces with face pyramid volume < 1e-13                 : 13
    faces with face-decomposition tet quality < 1e-15      : 189
    faces with concavity > 80  degrees                     : 0
    faces with skewness > 4   (internal) or 20  (boundary) : 0
    faces with interpolation weights (0..1)  < 0.02        : 0
    faces with volume ratio of neighbour cells < 0.01      : 0
    faces with face twist < 0.02                           : 30
    faces on cells with determinant < 0.001                : 0

Iteration 3
Moving mesh using displacement scaling : min:0.421875  max:1
Checking faces in error :
    non-orthogonality > 65  degrees                        : 0
    faces with face pyramid volume < 1e-13                 : 10
    faces with face-decomposition tet quality < 1e-15      : 148
    faces with concavity > 80  degrees                     : 0
    faces with skewness > 4   (internal) or 20  (boundary) : 0
    faces with interpolation weights (0..1)  < 0.02        : 0
    faces with volume ratio of neighbour cells < 0.01      : 0
    faces with face twist < 0.02                           : 22
    faces on cells with determinant < 0.001                : 0

Iteration 4
Moving mesh using displacement scaling : min:0.316406  max:1
Checking faces in error :
    non-orthogonality > 65  degrees                        : 0
    faces with face pyramid volume < 1e-13                 : 6
    faces with face-decomposition tet quality < 1e-15      : 124
    faces with concavity > 80  degrees                     : 0
    faces with skewness > 4   (internal) or 20  (boundary) : 0
    faces with interpolation weights (0..1)  < 0.02        : 0
    faces with volume ratio of neighbour cells < 0.01      : 0
    faces with face twist < 0.02                           : 20
    faces on cells with determinant < 0.001                : 0

Iteration 5
Displacement scaling for error reduction set to 0.
Moving mesh using displacement scaling : min:0.237305  max:1
Checking faces in error :
    non-orthogonality > 65  degrees                        : 0
    faces with face pyramid volume < 1e-13                 : 3
    faces with face-decomposition tet quality < 1e-15      : 102
    faces with concavity > 80  degrees                     : 0
    faces with skewness > 4   (internal) or 20  (boundary) : 0
    faces with interpolation weights (0..1)  < 0.02        : 0
    faces with volume ratio of neighbour cells < 0.01      : 0
    faces with face twist < 0.02                           : 29
    faces on cells with determinant < 0.001                : 0

Iteration 6
Moving mesh using displacement scaling : min:0  max:1
Checking faces in error :
    non-orthogonality > 65  degrees                        : 0
    faces with face pyramid volume < 1e-13                 : 0
    faces with face-decomposition tet quality < 1e-15      : 0
    faces with concavity > 80  degrees                     : 0
    faces with skewness > 4   (internal) or 20  (boundary) : 0
    faces with interpolation weights (0..1)  < 0.02        : 0
    faces with volume ratio of neighbour cells < 0.01      : 0
    faces with face twist < 0.02                           : 0
    faces on cells with determinant < 0.001                : 0
Successfully moved mesh
Moved mesh in = 1.86 s



Morph iteration 6
-----------------
Calculating patchDisplacement as distance to nearest surface point ...
    non-zone points : attract to nearest of all non-zone surfaces
    zone points     : attract to zone surface only

Wanted displacement : average:0.000583955 min:2.14137e-09 max:0.0151146
Calculated surface displacement in = 0.05 s


Detecting near surfaces ...
Overriding nearest with intersection of close gaps at 1180 out of 100421 points.
Overriding displacement on features :
   implicit features    : false
   explicit features    : true
   multi-patch features : false

Detected 1793 baffle edges out of 197912 edges.
Baffle points     : 1978 of which attracted to :
    feature point : 0
    feature edge  : 1968
    rest          : 10

Initially selected 30142 mesh points out of 100421 for reverse attraction.
Selected 60983 mesh points out of 100421 for reverse attraction.
Stringing feature edges : changed 2097 points
Stringing feature edges : changed 185 points
Stringing feature edges : changed 53 points
Stringing feature edges : changed 24 points
Stringing feature edges : changed 9 points
Stringing feature edges : changed 1 points
Stringing feature edges : changed 0 points
Attraction:
    linear   : max:(0.0131165 -0.000432456 -0.00749813) avg:(-6.21759e-06 -1.40337e-06 4.60352e-06)
    feature  : max:(-0.0320472 -0.00125245 0.00572387) avg:(4.43368e-06 -4.05302e-06 -8.1806e-06)
Feature analysis : total master points :97565 of which attracted to :
    feature point   : 1351
    feature edge    : 14835
    nearest surface : 0
    rest            : 81379

--> FOAM Warning : Displacement (0.000225891 -0.000420114 0.000873311) at mesh point 20590 coord (0.395576 -0.063686 0.364692) points through the surrounding patch faces
Smoothing displacement ...
Iteration 0
Iteration 10
Iteration 20
Displacement smoothed in = 1.15 s


Moving mesh ...

Iteration 0
Moving mesh using displacement scaling : min:1  max:1
Checking faces in error :
    non-orthogonality > 65  degrees                        : 15
    faces with face pyramid volume < 1e-13                 : 136
    faces with face-decomposition tet quality < 1e-15      : 787
    faces with concavity > 80  degrees                     : 13
    faces with skewness > 4   (internal) or 20  (boundary) : 0
    faces with interpolation weights (0..1)  < 0.02        : 0
    faces with volume ratio of neighbour cells < 0.01      : 0
    faces with face twist < 0.02                           : 57
    faces on cells with determinant < 0.001                : 0

Iteration 1
Moving mesh using displacement scaling : min:0.75  max:1
Checking faces in error :
    non-orthogonality > 65  degrees                        : 7
    faces with face pyramid volume < 1e-13                 : 84
    faces with face-decomposition tet quality < 1e-15      : 626
    faces with concavity > 80  degrees                     : 6
    faces with skewness > 4   (internal) or 20  (boundary) : 0
    faces with interpolation weights (0..1)  < 0.02        : 0
    faces with volume ratio of neighbour cells < 0.01      : 0
    faces with face twist < 0.02                           : 77
    faces on cells with determinant < 0.001                : 0

Iteration 2
Moving mesh using displacement scaling : min:0.5625  max:1
Checking faces in error :
    non-orthogonality > 65  degrees                        : 5
    faces with face pyramid volume < 1e-13                 : 56
    faces with face-decomposition tet quality < 1e-15      : 518
    faces with concavity > 80  degrees                     : 6
    faces with skewness > 4   (internal) or 20  (boundary) : 0
    faces with interpolation weights (0..1)  < 0.02        : 0
    faces with volume ratio of neighbour cells < 0.01      : 0
    faces with face twist < 0.02                           : 61
    faces on cells with determinant < 0.001                : 0

Iteration 3
Moving mesh using displacement scaling : min:0.421875  max:1
Checking faces in error :
    non-orthogonality > 65  degrees                        : 3
    faces with face pyramid volume < 1e-13                 : 36
    faces with face-decomposition tet quality < 1e-15      : 430
    faces with concavity > 80  degrees                     : 4
    faces with skewness > 4   (internal) or 20  (boundary) : 0
    faces with interpolation weights (0..1)  < 0.02        : 0
    faces with volume ratio of neighbour cells < 0.01      : 0
    faces with face twist < 0.02                           : 64
    faces on cells with determinant < 0.001                : 0

Iteration 4
Moving mesh using displacement scaling : min:0.316406  max:1
Checking faces in error :
    non-orthogonality > 65  degrees                        : 2
    faces with face pyramid volume < 1e-13                 : 18
    faces with face-decomposition tet quality < 1e-15      : 364
    faces with concavity > 80  degrees                     : 4
    faces with skewness > 4   (internal) or 20  (boundary) : 0
    faces with interpolation weights (0..1)  < 0.02        : 0
    faces with volume ratio of neighbour cells < 0.01      : 0
    faces with face twist < 0.02                           : 73
    faces on cells with determinant < 0.001                : 0

Iteration 5
Displacement scaling for error reduction set to 0.
Moving mesh using displacement scaling : min:0.237305  max:1
Checking faces in error :
    non-orthogonality > 65  degrees                        : 2
    faces with face pyramid volume < 1e-13                 : 10
    faces with face-decomposition tet quality < 1e-15      : 313
    faces with concavity > 80  degrees                     : 4
    faces with skewness > 4   (internal) or 20  (boundary) : 0
    faces with interpolation weights (0..1)  < 0.02        : 0
    faces with volume ratio of neighbour cells < 0.01      : 0
    faces with face twist < 0.02                           : 87
    faces on cells with determinant < 0.001                : 0

Iteration 6
Moving mesh using displacement scaling : min:0  max:1
Checking faces in error :
    non-orthogonality > 65  degrees                        : 0
    faces with face pyramid volume < 1e-13                 : 0
    faces with face-decomposition tet quality < 1e-15      : 1
    faces with concavity > 80  degrees                     : 0
    faces with skewness > 4   (internal) or 20  (boundary) : 0
    faces with interpolation weights (0..1)  < 0.02        : 0
    faces with volume ratio of neighbour cells < 0.01      : 0
    faces with face twist < 0.02                           : 0
    faces on cells with determinant < 0.001                : 0

Iteration 7
Moving mesh using displacement scaling : min:0  max:1
Checking faces in error :
    non-orthogonality > 65  degrees                        : 0
    faces with face pyramid volume < 1e-13                 : 0
    faces with face-decomposition tet quality < 1e-15      : 0
    faces with concavity > 80  degrees                     : 0
    faces with skewness > 4   (internal) or 20  (boundary) : 0
    faces with interpolation weights (0..1)  < 0.02        : 0
    faces with volume ratio of neighbour cells < 0.01      : 0
    faces with face twist < 0.02                           : 0
    faces on cells with determinant < 0.001                : 0
Successfully moved mesh
Moved mesh in = 2.46 s



Morph iteration 7
-----------------
Calculating patchDisplacement as distance to nearest surface point ...
    non-zone points : attract to nearest of all non-zone surfaces
    zone points     : attract to zone surface only

Wanted displacement : average:0.000355966 min:6.6057e-10 max:0.0152322
Calculated surface displacement in = 0.04 s


Detecting near surfaces ...
Overriding nearest with intersection of close gaps at 1846 out of 100421 points.
Overriding displacement on features :
   implicit features    : false
   explicit features    : true
   multi-patch features : false

Detected 1964 baffle edges out of 197912 edges.
Baffle points     : 2206 of which attracted to :
    feature point : 0
    feature edge  : 2196
    rest          : 10

Initially selected 30449 mesh points out of 100421 for reverse attraction.
Selected 61105 mesh points out of 100421 for reverse attraction.
Stringing feature edges : changed 2050 points
Stringing feature edges : changed 232 points
Stringing feature edges : changed 67 points
Stringing feature edges : changed 28 points
Stringing feature edges : changed 16 points
Stringing feature edges : changed 12 points
Stringing feature edges : changed 10 points
Stringing feature edges : changed 2 points
Stringing feature edges : changed 1 points
Stringing feature edges : changed 2 points
Stringing feature edges : changed 0 points
Attraction:
    linear   : max:(-0.00570193 0.00975904 -0.0390506) avg:(-3.57693e-06 7.7896e-07 -3.92632e-07)
    feature  : max:(-0.0328044 -1.2772e-05 0.0022697) avg:(2.64039e-06 2.61012e-06 -3.18347e-06)
Feature analysis : total master points :97565 of which attracted to :
    feature point   : 1349
    feature edge    : 15186
    nearest surface : 0
    rest            : 81030

--> FOAM Warning : Displacement (0.000407513 -0.000919705 0.00102751) at mesh point 20590 coord (0.395735 -0.063983 0.365309) points through the surrounding patch faces
Smoothing displacement ...
Iteration 0
Iteration 10
Iteration 20
Displacement smoothed in = 1.16 s


Moving mesh ...

Iteration 0
Moving mesh using displacement scaling : min:1  max:1
Checking faces in error :
    non-orthogonality > 65  degrees                        : 33
    faces with face pyramid volume < 1e-13                 : 282
    faces with face-decomposition tet quality < 1e-15      : 1295
    faces with concavity > 80  degrees                     : 23
    faces with skewness > 4   (internal) or 20  (boundary) : 0
    faces with interpolation weights (0..1)  < 0.02        : 0
    faces with volume ratio of neighbour cells < 0.01      : 0
    faces with face twist < 0.02                           : 101
    faces on cells with determinant < 0.001                : 0

Iteration 1
Moving mesh using displacement scaling : min:0.75  max:1
Checking faces in error :
    non-orthogonality > 65  degrees                        : 17
    faces with face pyramid volume < 1e-13                 : 176
    faces with face-decomposition tet quality < 1e-15      : 1078
    faces with concavity > 80  degrees                     : 13
    faces with skewness > 4   (internal) or 20  (boundary) : 0
    faces with interpolation weights (0..1)  < 0.02        : 0
    faces with volume ratio of neighbour cells < 0.01      : 0
    faces with face twist < 0.02                           : 83
    faces on cells with determinant < 0.001                : 0

Iteration 2
Moving mesh using displacement scaling : min:0.5625  max:1
Checking faces in error :
    non-orthogonality > 65  degrees                        : 11
    faces with face pyramid volume < 1e-13                 : 120
    faces with face-decomposition tet quality < 1e-15      : 903
    faces with concavity > 80  degrees                     : 14
    faces with skewness > 4   (internal) or 20  (boundary) : 0
    faces with interpolation weights (0..1)  < 0.02        : 0
    faces with volume ratio of neighbour cells < 0.01      : 0
    faces with face twist < 0.02                           : 80
    faces on cells with determinant < 0.001                : 0

Iteration 3
Moving mesh using displacement scaling : min:0.421875  max:1
Checking faces in error :
[...]
    faces with interpolation weights (0..1)  < 0.02        : 0
    faces with volume ratio of neighbour cells < 0.01      : 0
    faces with face twist < 0.02                           : 0
    faces on cells with determinant < 0.001                : 0
displacementMedialAxis : Successfully moved mesh
displacementMedialAxis : Finished moving mesh ...
truncateDisplacement : Unextruded 0 faces due to non-consecutive vertices being extruded.
truncateDisplacement : Unextruded 0 faces due to stringed edges with inconsistent extrusion.

Setting up information for layer truncation ...
Detected 0 baffles across faceZones of type internal


Checking mesh with layer ...
Checking faces in error :
    non-orthogonality > 65  degrees                        : 0
    faces with face pyramid volume < 1e-13                 : 0
    faces with face-decomposition tet quality < 1e-15      : 2
    faces with concavity > 80  degrees                     : 0
    faces with skewness > 4   (internal) or 20  (boundary) : 0
    faces with interpolation weights (0..1)  < 0.02        : 0
    faces with volume ratio of neighbour cells < 0.01      : 0
    faces with face twist < 0.02                           : 0
    faces on cells with determinant < 0.001                : 0
Detected 2 illegal faces (concave, zero area or negative cell pyramid volume)
Extruding 46826 out of 75927 faces (61.6724%). Removed extrusion at 2 faces.
Added 46828 out of 75927 cells (61.675%).


Layer addition iteration 11
--------------------------

Determining displacement for added points according to pointNormal ...
Detected 0 points with point normal pointing through faces.
Reset displacement at 0 points to average of surrounding points.

displacementMedialAxis : Smoothing using Medial Axis ...
displacementMedialAxis : Reducing layer thickness at 763 nodes where thickness to medial axis distance is large 
displacementMedialAxis : Removing isolated regions ...
- if partially extruded faces make angle < 30
- if exclusively surrounded by non-extruded faces
displacementMedialAxis : Number of isolated points extrusion stopped : 7
fieldSmoother : Smoothing field ...
    Iteration 0   residual 8.0024e-05
displacementMedialAxis : Moving mesh ...
displacementMedialAxis : Iteration 0
Moving mesh using displacement scaling : min:1  max:1
Checking faces in error :
    non-orthogonality > 65  degrees                        : 0
    faces with face pyramid volume < 1e-13                 : 0
    faces with face-decomposition tet quality < 1e-15      : 12
    faces with concavity > 80  degrees                     : 0
    faces with skewness > 4   (internal) or 20  (boundary) : 0
    faces with interpolation weights (0..1)  < 0.02        : 0
    faces with volume ratio of neighbour cells < 0.01      : 0
    faces with face twist < 0.02                           : 0
    faces on cells with determinant < 0.001                : 0
displacementMedialAxis : Iteration 1
Moving mesh using displacement scaling : min:0.75  max:1
Checking faces in error :
    non-orthogonality > 65  degrees                        : 0
    faces with face pyramid volume < 1e-13                 : 0
    faces with face-decomposition tet quality < 1e-15      : 1
    faces with concavity > 80  degrees                     : 0
    faces with skewness > 4   (internal) or 20  (boundary) : 0
    faces with interpolation weights (0..1)  < 0.02        : 0
    faces with volume ratio of neighbour cells < 0.01      : 0
    faces with face twist < 0.02                           : 0
    faces on cells with determinant < 0.001                : 0
displacementMedialAxis : Iteration 2
Moving mesh using displacement scaling : min:0.5625  max:1
Checking faces in error :
    non-orthogonality > 65  degrees                        : 0
    faces with face pyramid volume < 1e-13                 : 0
    faces with face-decomposition tet quality < 1e-15      : 1
    faces with concavity > 80  degrees                     : 0
    faces with skewness > 4   (internal) or 20  (boundary) : 0
    faces with interpolation weights (0..1)  < 0.02        : 0
    faces with volume ratio of neighbour cells < 0.01      : 0
    faces with face twist < 0.02                           : 0
    faces on cells with determinant < 0.001                : 0
displacementMedialAxis : Iteration 3
displacementMedialAxis : Displacement scaling for error reduction set to 0.
Moving mesh using displacement scaling : min:0.421875  max:1
Checking faces in error :
    non-orthogonality > 65  degrees                        : 0
    faces with face pyramid volume < 1e-13                 : 0
    faces with face-decomposition tet quality < 1e-15      : 1
    faces with concavity > 80  degrees                     : 0
    faces with skewness > 4   (internal) or 20  (boundary) : 0
    faces with interpolation weights (0..1)  < 0.02        : 0
    faces with volume ratio of neighbour cells < 0.01      : 0
    faces with face twist < 0.02                           : 0
    faces on cells with determinant < 0.001                : 0
displacementMedialAxis : Iteration 4
Moving mesh using displacement scaling : min:0  max:1
Checking faces in error :
    non-orthogonality > 65  degrees                        : 0
    faces with face pyramid volume < 1e-13                 : 0
    faces with face-decomposition tet quality < 1e-15      : 0
    faces with concavity > 80  degrees                     : 0
    faces with skewness > 4   (internal) or 20  (boundary) : 0
    faces with interpolation weights (0..1)  < 0.02        : 0
    faces with volume ratio of neighbour cells < 0.01      : 0
    faces with face twist < 0.02                           : 0
    faces on cells with determinant < 0.001                : 0
displacementMedialAxis : Successfully moved mesh
displacementMedialAxis : Finished moving mesh ...
truncateDisplacement : Unextruded 0 faces due to non-consecutive vertices being extruded.
truncateDisplacement : Unextruded 0 faces due to stringed edges with inconsistent extrusion.

Setting up information for layer truncation ...
Detected 0 baffles across faceZones of type internal


Checking mesh with layer ...
Checking faces in error :
    non-orthogonality > 65  degrees                        : 0
    faces with face pyramid volume < 1e-13                 : 0
    faces with face-decomposition tet quality < 1e-15      : 2
    faces with concavity > 80  degrees                     : 0
    faces with skewness > 4   (internal) or 20  (boundary) : 0
    faces with interpolation weights (0..1)  < 0.02        : 0
    faces with volume ratio of neighbour cells < 0.01      : 0
    faces with face twist < 0.02                           : 0
    faces on cells with determinant < 0.001                : 0
Detected 2 illegal faces (concave, zero area or negative cell pyramid volume)
Extruding 46815 out of 75927 faces (61.6579%). Removed extrusion at 2 faces.
Added 46817 out of 75927 cells (61.6605%).


Layer addition iteration 12
--------------------------

Determining displacement for added points according to pointNormal ...
Detected 0 points with point normal pointing through faces.
Reset displacement at 0 points to average of surrounding points.

displacementMedialAxis : Smoothing using Medial Axis ...
displacementMedialAxis : Reducing layer thickness at 763 nodes where thickness to medial axis distance is large 
displacementMedialAxis : Removing isolated regions ...
- if partially extruded faces make angle < 30
- if exclusively surrounded by non-extruded faces
displacementMedialAxis : Number of isolated points extrusion stopped : 7
fieldSmoother : Smoothing field ...
    Iteration 0   residual 7.99727e-05
displacementMedialAxis : Moving mesh ...
displacementMedialAxis : Iteration 0
Moving mesh using displacement scaling : min:1  max:1
Checking faces in error :
    non-orthogonality > 65  degrees                        : 0
    faces with face pyramid volume < 1e-13                 : 0
    faces with face-decomposition tet quality < 1e-15      : 12
    faces with concavity > 80  degrees                     : 0
    faces with skewness > 4   (internal) or 20  (boundary) : 0
    faces with interpolation weights (0..1)  < 0.02        : 0
    faces with volume ratio of neighbour cells < 0.01      : 0
    faces with face twist < 0.02                           : 0
    faces on cells with determinant < 0.001                : 0
displacementMedialAxis : Iteration 1
Moving mesh using displacement scaling : min:0.75  max:1
Checking faces in error :
    non-orthogonality > 65  degrees                        : 0
    faces with face pyramid volume < 1e-13                 : 0
    faces with face-decomposition tet quality < 1e-15      : 1
    faces with concavity > 80  degrees                     : 0
    faces with skewness > 4   (internal) or 20  (boundary) : 0
    faces with interpolation weights (0..1)  < 0.02        : 0
    faces with volume ratio of neighbour cells < 0.01      : 0
    faces with face twist < 0.02                           : 0
    faces on cells with determinant < 0.001                : 0
displacementMedialAxis : Iteration 2
Moving mesh using displacement scaling : min:0.5625  max:1
Checking faces in error :
    non-orthogonality > 65  degrees                        : 0
    faces with face pyramid volume < 1e-13                 : 0
    faces with face-decomposition tet quality < 1e-15      : 1
    faces with concavity > 80  degrees                     : 0
    faces with skewness > 4   (internal) or 20  (boundary) : 0
    faces with interpolation weights (0..1)  < 0.02        : 0
    faces with volume ratio of neighbour cells < 0.01      : 0
    faces with face twist < 0.02                           : 0
    faces on cells with determinant < 0.001                : 0
displacementMedialAxis : Iteration 3
displacementMedialAxis : Displacement scaling for error reduction set to 0.
Moving mesh using displacement scaling : min:0.421875  max:1
Checking faces in error :
    non-orthogonality > 65  degrees                        : 0
    faces with face pyramid volume < 1e-13                 : 0
    faces with face-decomposition tet quality < 1e-15      : 1
    faces with concavity > 80  degrees                     : 0
    faces with skewness > 4   (internal) or 20  (boundary) : 0
    faces with interpolation weights (0..1)  < 0.02        : 0
    faces with volume ratio of neighbour cells < 0.01      : 0
    faces with face twist < 0.02                           : 0
    faces on cells with determinant < 0.001                : 0
displacementMedialAxis : Iteration 4
Moving mesh using displacement scaling : min:0  max:1
Checking faces in error :
    non-orthogonality > 65  degrees                        : 0
    faces with face pyramid volume < 1e-13                 : 0
    faces with face-decomposition tet quality < 1e-15      : 0
    faces with concavity > 80  degrees                     : 0
    faces with skewness > 4   (internal) or 20  (boundary) : 0
    faces with interpolation weights (0..1)  < 0.02        : 0
    faces with volume ratio of neighbour cells < 0.01      : 0
    faces with face twist < 0.02                           : 0
    faces on cells with determinant < 0.001                : 0
displacementMedialAxis : Successfully moved mesh
displacementMedialAxis : Finished moving mesh ...
truncateDisplacement : Unextruded 0 faces due to non-consecutive vertices being extruded.
truncateDisplacement : Unextruded 0 faces due to stringed edges with inconsistent extrusion.

Setting up information for layer truncation ...
Detected 0 baffles across faceZones of type internal


Checking mesh with layer ...
Checking faces in error :
    non-orthogonality > 65  degrees                        : 0
    faces with face pyramid volume < 1e-13                 : 0
    faces with face-decomposition tet quality < 1e-15      : 0
    faces with concavity > 80  degrees                     : 0
    faces with skewness > 4   (internal) or 20  (boundary) : 0
    faces with interpolation weights (0..1)  < 0.02        : 0
    faces with volume ratio of neighbour cells < 0.01      : 0
    faces with face twist < 0.02                           : 0
    faces on cells with determinant < 0.001                : 0
Detected 0 illegal faces (concave, zero area or negative cell pyramid volume)
Extruding 46801 out of 75927 faces (61.6395%). Removed extrusion at 0 faces.
Added 46801 out of 75927 cells (61.6395%).
Edge intersection testing:
    Number of edges             : 1872307
    Number of edges to retest   : 0
    Number of intersected edges : 106633

patch                                            faces    layers   overall thickness
                                                                   [m]       [%]
-----                                            -----    ------   ---       ---
lowerWall                                        7145     0.995    0.0215    94.3    
motorBike_frt-fairing:001%1                      8512     0.42     0.000847  23      
motorBike_windshield:002%2                       78       0.91     0.00295   78.8    
motorBike_rr-wh-rim:005%5                        209      0.55     0.000657  22      
motorBike_rr-wh-rim:010%10                       498      0.163    0.000154  5.15    
motorBike_fr-wh-rim:011%11                       745      0.427    0.000476  17.2    
motorBike_fr-wh-brake-disk:012%12                85       0        0         0       
motorBike_frame:016-shadow%13                    155      0.258    0.000197  7.35    
motorBike_rear-susp:014%14                       1312     0.466    0.000599  18      
motorBike_rear-susp:014-shadow%15                752      0.427    0.0006    17.6    
motorBike_frame:016%16                           99       0.222    0.000163  6.12    
motorBike_rr-wh-rim:005-shadow%17                122      0.582    0.000786  25.1    
motorBike_rr-wh-chain-hub:022%22                 175      0.0914   7.19e-05  2.75    
motorBike_rearseat%24                            626      0.74     0.00185   48.8    
motorBike_frt-fairing%25                         960      0.789    0.00184   50      
motorBike_windshield%26                          574      0.0958   8.55e-05  2.28    
motorBike_headlights%27                          248      0.968    0.0031    82.6    
motorBike_driversseat%28                         590      0.586    0.00117   34.3    
motorBike_rear-body%29                           3101     0.737    0.00172   46.5    
motorBike_fuel-tank%30                           1391     0.886    0.00267   72.5    
motorBike_exhaust%31                             3784     0.493    0.00154   41.6    
motorBike_rr-wh-rim%32                           2035     0.799    0.00175   48.4    
motorBike_fr-mud-guard%33                        1104     0.255    0.000425  11.6    
motorBike_fr-wh-rim%34                           963      0.639    0.00118   33.5    
motorBike_fr-wh-brake-disk%35                    591      0.325    0.000248  9.74    
motorBike_fr-brake-caliper%36                    228      0        0         0       
motorBike_fr-wh-tyre%37                          1852     0.688    0.00172   46.3    
motorBike_hbars%38                               811      0        0         0       
motorBike_fr-forks%39                            1701     0.492    0.00147   39.8    
motorBike_chain%40                               728      0.0453   3.22e-05  1.43    
motorBike_rr-wh-tyre%41                          2460     0.788    0.00231   59.2    
motorBike_square-dial%42                         9        1        0.00202   54      
motorBike_round-dial%43                          23       0.87     0.000784  28.7    
motorBike_dial-holder%44                         134      0.254    0.000198  8.88    
motorBike_rear-susp%45                           2770     0.461    0.000681  21.3    
motorBike_rear-brake-lights%46                   80       0.375    0.000269  11.1    
motorBike_rear-light-bracket%47                  250      0.792    0.00128   39.5    
motorBike_frame%48                               3117     0.657    0.00134   38.6    
motorBike_rear-mud-guard%49                      991      0.25     0.000305  8.37    
motorBike_rear-susp-spring-damp%50               153      0        0         0       
motorBike_fairing-inner-plate%51                 703      0.761    0.00173   48.5    
motorBike_clutch-housing%52                      1501     0.86     0.00187   52.7    
motorBike_radiator%53                            78       0        0         0       
motorBike_water-pipe%54                          144      0        0         0       
motorBike_water-pump%55                          108      0        0         0       
motorBike_engine%56                              3654     0.817    0.00167   46.7    
motorBike_rear-shock-link%57                     31       0        0         0       
motorBike_rear-brake-fluid-pot-bracket%58        58       0.224    0.000149  5.94    
motorBike_rear-brake-fluid-pot%59                84       0        0         0       
motorBike_footpeg%60                             139      0        0         0       
motorBike_rr-wh-chain-hub%61                     180      0.444    0.000396  15.5    
motorBike_rear-brake-caliper%62                  193      0.28     0.000212  8.79    
motorBike_rider-helmet%65                        912      0.966    0.00324   80      
motorBike_rider-visor%66                         262      1        0.00375   100     
motorBike_rider-boots%67                         1545     0.9      0.00268   73.2    
motorBike_rider-gloves%68                        481      0.304    0.00055   14.9    
motorBike_rider-body%69                          6999     0.909    0.00299   76.7    
motorBike_frame:0%70                             53       0.717    0.00108   29.9    
motorBike_frt-fairing:001-shadow%74              5203     0.378    0.000793  21.5    
motorBike_windshield-shadow%75                   399      0.0727   7.44e-05  1.98    
motorBike_fr-mud-guard-shadow%81                 684      0.263    0.000415  11.3    
motorBike_fr-wh-brake-disk-shadow%83             372      0.344    0.000248  10.4    
motorBike_rear-mud-guard-shadow%84               660      0.206    0.000238  6.78    
motorBike_rear-susp-spring-damp-shadow%85        105      0        0         0       
motorBike_radiator-shadow%86                     57       0        0         0       
motorBike_rear-shock-link-shadow%87              18       0        0         0       
motorBike_rear-brake-fluid-pot-bracket-shadow%88 33       0.212    0.000172  5.93    
motorBike_rr-wh-chain-hub-shadow%89              110      0.482    0.000462  16.5    


Doing final balancing
---------------------

Writing 46801 added cells to cellSet addedCells
Writing 0 faces inside added layer to faceSet layerFaces

Writing fields with layer information:
    nSurfaceLayers    : actual number of layers
    thickness         : overall layer thickness
    thicknessFraction : overall layer thickness (fraction of desired thickness)

Layer mesh : cells:599130  faces:1872307  points:682676
Cells per refinement level:
    0	2198
    1	2206
    2	6876
    3	21008
    4	245821
    5	38557
    6	282464
Writing mesh to time constant
Wrote mesh in = 38.57 s.
Layers added in = 38.57 s.
Checking final mesh ...
Checking faces in error :
    non-orthogonality > 65  degrees                        : 0
    faces with face pyramid volume < 1e-13                 : 0
    faces with face-decomposition tet quality < 1e-15      : 0
    faces with concavity > 80  degrees                     : 0
    faces with skewness > 4   (internal) or 20  (boundary) : 0
    faces with interpolation weights (0..1)  < 0.02        : 0
    faces with volume ratio of neighbour cells < 0.01      : 0
    faces with face twist < 0.02                           : 0
    faces on cells with determinant < 0.001                : 0
Finished meshing without any errors
Finished meshing in = 102.88 s.
End

Finalising parallel run
