/*---------------------------------------------------------------------------*\
| =========                 |                                                 |
| \\      /  F ield         | OpenFOAM: The Open Source CFD Toolbox           |
|  \\    /   O peration     | Version:  2306                                  |
|   \\  /    A nd           | Website:  www.openfoam.com                      |
|    \\/     M anipulation  |                                                 |
\*---------------------------------------------------------------------------*/
Build  : _fbf00d6b-20230626 OPENFOAM=2306 version=2306
Arch   : "LSB;label=32;scalar=64"
Exec   : buoyantBoussinesqSimpleFoam -parallel -decomposeParDict system/decomposeParDict.6
Date   : Feb 05 2024
Time   : 13:16:21
Host   : TheMachine
PID    : 11859
I/O    : uncollated
Case   : /home/adrian/run/TFG_FILES/mbTest
nProcs : 6
Hosts  :
(
    (TheMachine 6)
)
Pstream initialized with:
    floatTransfer      : false
    nProcsSimpleSum    : 0
    nonBlockingExchange: 0 (tuning: 0)
    exchange algorithm : -1
    commsType          : nonBlocking
    polling iterations : 0
trapFpe: Floating point exception trapping enabled (FOAM_SIGFPE).
fileModificationChecking : Monitoring run-time modified files using timeStampMaster (fileModificationSkew 5, maxFileModificationPolls 20)
allowSystemOperations : Allowing user-supplied system call operations

// * * * * * * * * * * * * * * * * * * * * * * * * * * * * * * * * * * * * * //
Create time

Create mesh for time = 0


SIMPLE: no convergence criteria found. Calculations will run for 500 steps.

Reading thermophysical properties

Reading field T

Reading field p_rgh

Reading field U

Reading/calculating face flux field phi

Selecting incompressible transport model Newtonian
Creating turbulence model

Selecting turbulence model type RAS
Selecting RAS turbulence model kOmegaSST
Selecting patchDistMethod meshWave
RAS
{
    RASModel        kOmegaSST;
    turbulence      on;
    printCoeffs     on;
    alphaK1         0.85;
    alphaK2         1;
    alphaOmega1     0.5;
    alphaOmega2     0.856;
    gamma1          0.555556;
    gamma2          0.44;
    beta1           0.075;
    beta2           0.0828;
    betaStar        0.09;
    a1              0.31;
    b1              1;
    c1              10;
    F3              false;
    decayControl    false;
    kInf            0;
    omegaInf        0;
}

Reading field alphat


Reading g

Reading hRef
Calculating field g.h

No MRF models present

Radiation model not active: radiationProperties not found
Selecting radiationModel none
No finite volume options present

Starting time loop

Time = 1

smoothSolver:  Solving for Ux, Initial residual = 1, Final residual = 0.0856898, No Iterations 10
smoothSolver:  Solving for Uy, Initial residual = 1, Final residual = 0.0988356, No Iterations 10
smoothSolver:  Solving for Uz, Initial residual = 1, Final residual = 0.0859265, No Iterations 10
smoothSolver:  Solving for T, Initial residual = 1, Final residual = 0.0674548, No Iterations 3
GAMG:  Solving for p_rgh, Initial residual = 1, Final residual = 0.00459964, No Iterations 4
time step continuity errors : sum local = 2.70391e-06, global = 1.80764e-09, cumulative = 1.80764e-09
smoothSolver:  Solving for omega, Initial residual = 0.105471, Final residual = 0.00891765, No Iterations 2
bounding omega, min: -419.083 max: 47079.3 average: 333.61
smoothSolver:  Solving for k, Initial residual = 1, Final residual = 0.0806705, No Iterations 3
ExecutionTime = 1.96 s  ClockTime = 2 s

Time = 2

smoothSolver:  Solving for Ux, Initial residual = 0.984913, Final residual = 0.085071, No Iterations 9
smoothSolver:  Solving for Uy, Initial residual = 0.942019, Final residual = 0.0824621, No Iterations 10
smoothSolver:  Solving for Uz, Initial residual = 0.986894, Final residual = 0.0847128, No Iterations 9
smoothSolver:  Solving for T, Initial residual = 0.707304, Final residual = 0.0891787, No Iterations 1000
GAMG:  Solving for p_rgh, Initial residual = 0.984103, Final residual = 0.00417265, No Iterations 3
time step continuity errors : sum local = 0.00300818, global = 9.0952e-06, cumulative = 9.097e-06
smoothSolver:  Solving for omega, Initial residual = 0.0752076, Final residual = 0.00280247, No Iterations 3
bounding omega, min: -5.45818 max: 82101 average: 585.244
smoothSolver:  Solving for k, Initial residual = 0.474134, Final residual = 0.0344498, No Iterations 3
ExecutionTime = 7.52 s  ClockTime = 8 s

Time = 3

smoothSolver:  Solving for Ux, Initial residual = 0.718932, Final residual = 0.0571673, No Iterations 4
smoothSolver:  Solving for Uy, Initial residual = 0.651129, Final residual = 0.0516652, No Iterations 4
smoothSolver:  Solving for Uz, Initial residual = 0.72416, Final residual = 0.0576801, No Iterations 4
smoothSolver:  Solving for T, Initial residual = 0.94894, Final residual = 0.080866, No Iterations 6
GAMG:  Solving for p_rgh, Initial residual = 0.777342, Final residual = 0.00719728, No Iterations 4
time step continuity errors : sum local = 0.00225978, global = 4.19197e-05, cumulative = 5.10167e-05
smoothSolver:  Solving for omega, Initial residual = 0.0512399, Final residual = 0.00332654, No Iterations 2
smoothSolver:  Solving for k, Initial residual = 0.0823329, Final residual = 0.00648358, No Iterations 3
ExecutionTime = 8.58 s  ClockTime = 9 s

Time = 4

smoothSolver:  Solving for Ux, Initial residual = 0.644645, Final residual = 0.0582344, No Iterations 7
smoothSolver:  Solving for Uy, Initial residual = 0.619881, Final residual = 0.0500502, No Iterations 9
smoothSolver:  Solving for Uz, Initial residual = 0.646103, Final residual = 0.0633076, No Iterations 7
smoothSolver:  Solving for T, Initial residual = 0.859915, Final residual = 0.0834434, No Iterations 22
GAMG:  Solving for p_rgh, Initial residual = 0.462862, Final residual = 0.00344485, No Iterations 5
time step continuity errors : sum local = 0.00594294, global = -0.000155654, cumulative = -0.000104638
smoothSolver:  Solving for omega, Initial residual = 0.0666654, Final residual = 0.00357104, No Iterations 3
smoothSolver:  Solving for k, Initial residual = 0.125555, Final residual = 0.0110384, No Iterations 3
ExecutionTime = 9.79 s  ClockTime = 10 s

Time = 5

smoothSolver:  Solving for Ux, Initial residual = 0.646383, Final residual = 0.060537, No Iterations 7
smoothSolver:  Solving for Uy, Initial residual = 0.604003, Final residual = 0.0519968, No Iterations 9
smoothSolver:  Solving for Uz, Initial residual = 0.650312, Final residual = 0.0500583, No Iterations 8
smoothSolver:  Solving for T, Initial residual = 0.866345, Final residual = 0.0846724, No Iterations 29
GAMG:  Solving for p_rgh, Initial residual = 0.515742, Final residual = 0.0018162, No Iterations 6
time step continuity errors : sum local = 0.00720665, global = 7.58737e-05, cumulative = -2.8764e-05
smoothSolver:  Solving for omega, Initial residual = 0.107295, Final residual = 0.00633994, No Iterations 3
smoothSolver:  Solving for k, Initial residual = 0.155598, Final residual = 0.0138424, No Iterations 3
ExecutionTime = 11.06 s  ClockTime = 12 s

Time = 6

smoothSolver:  Solving for Ux, Initial residual = 0.634865, Final residual = 0.0523313, No Iterations 8
smoothSolver:  Solving for Uy, Initial residual = 0.628192, Final residual = 0.0538163, No Iterations 9
smoothSolver:  Solving for Uz, Initial residual = 0.647108, Final residual = 0.0577716, No Iterations 8
smoothSolver:  Solving for T, Initial residual = 0.936224, Final residual = 0.0919299, No Iterations 24
GAMG:  Solving for p_rgh, Initial residual = 0.176564, Final residual = 0.00166689, No Iterations 5
time step continuity errors : sum local = 0.0482994, global = -0.00103218, cumulative = -0.00106095
smoothSolver:  Solving for omega, Initial residual = 0.159954, Final residual = 0.0103172, No Iterations 3
smoothSolver:  Solving for k, Initial residual = 0.210956, Final residual = 0.0202539, No Iterations 3
ExecutionTime = 12.34 s  ClockTime = 13 s

Time = 7

smoothSolver:  Solving for Ux, Initial residual = 0.642323, Final residual = 0.0633549, No Iterations 7
smoothSolver:  Solving for Uy, Initial residual = 0.65535, Final residual = 0.0537723, No Iterations 9
smoothSolver:  Solving for Uz, Initial residual = 0.645793, Final residual = 0.0614811, No Iterations 7
smoothSolver:  Solving for T, Initial residual = 0.946168, Final residual = 0.0916174, No Iterations 21
GAMG:  Solving for p_rgh, Initial residual = 0.12568, Final residual = 0.000540743, No Iterations 6
time step continuity errors : sum local = 0.0540519, global = -0.000727002, cumulative = -0.00178795
smoothSolver:  Solving for omega, Initial residual = 0.141276, Final residual = 0.00844061, No Iterations 3
smoothSolver:  Solving for k, Initial residual = 0.209314, Final residual = 0.0201333, No Iterations 3
ExecutionTime = 13.57 s  ClockTime = 14 s

Time = 8

smoothSolver:  Solving for Ux, Initial residual = 0.651597, Final residual = 0.0586976, No Iterations 8
smoothSolver:  Solving for Uy, Initial residual = 0.660155, Final residual = 0.0579668, No Iterations 9
smoothSolver:  Solving for Uz, Initial residual = 0.651034, Final residual = 0.0618078, No Iterations 8
smoothSolver:  Solving for T, Initial residual = 0.963771, Final residual = 0.0909383, No Iterations 18
GAMG:  Solving for p_rgh, Initial residual = 0.0735981, Final residual = 0.000301798, No Iterations 6
time step continuity errors : sum local = 0.126817, global = -0.000572997, cumulative = -0.00236095
smoothSolver:  Solving for omega, Initial residual = 0.140096, Final residual = 0.00812401, No Iterations 3
smoothSolver:  Solving for k, Initial residual = 0.177292, Final residual = 0.0165192, No Iterations 3
ExecutionTime = 14.82 s  ClockTime = 15 s

Time = 9

smoothSolver:  Solving for Ux, Initial residual = 0.636191, Final residual = 0.0620324, No Iterations 7
smoothSolver:  Solving for Uy, Initial residual = 0.649062, Final residual = 0.0512135, No Iterations 9
smoothSolver:  Solving for Uz, Initial residual = 0.637363, Final residual = 0.0628541, No Iterations 7
smoothSolver:  Solving for T, Initial residual = 0.969883, Final residual = 0.0926886, No Iterations 18
GAMG:  Solving for p_rgh, Initial residual = 0.0478174, Final residual = 0.000475295, No Iterations 5
time step continuity errors : sum local = 0.675102, global = -0.0529094, cumulative = -0.0552703
smoothSolver:  Solving for omega, Initial residual = 0.126821, Final residual = 0.0065324, No Iterations 3
smoothSolver:  Solving for k, Initial residual = 0.158294, Final residual = 0.0138046, No Iterations 3
ExecutionTime = 16.04 s  ClockTime = 16 s

Time = 10

smoothSolver:  Solving for Ux, Initial residual = 0.643079, Final residual = 0.0590066, No Iterations 8
smoothSolver:  Solving for Uy, Initial residual = 0.661554, Final residual = 0.0610297, No Iterations 9
smoothSolver:  Solving for Uz, Initial residual = 0.650292, Final residual = 0.063112, No Iterations 8
smoothSolver:  Solving for T, Initial residual = 0.970084, Final residual = 0.0968051, No Iterations 16
GAMG:  Solving for p_rgh, Initial residual = 0.0339053, Final residual = 0.000149561, No Iterations 6
time step continuity errors : sum local = 0.848411, global = 0.0189414, cumulative = -0.036329
smoothSolver:  Solving for omega, Initial residual = 0.111098, Final residual = 0.00543606, No Iterations 3
smoothSolver:  Solving for k, Initial residual = 0.119617, Final residual = 0.00919709, No Iterations 3
ExecutionTime = 17.35 s  ClockTime = 18 s

Time = 11

smoothSolver:  Solving for Ux, Initial residual = 0.639471, Final residual = 0.0605943, No Iterations 7
smoothSolver:  Solving for Uy, Initial residual = 0.649932, Final residual = 0.06269, No Iterations 8
smoothSolver:  Solving for Uz, Initial residual = 0.643119, Final residual = 0.0596863, No Iterations 7
smoothSolver:  Solving for T, Initial residual = 0.978043, Final residual = 0.0965562, No Iterations 20
GAMG:  Solving for p_rgh, Initial residual = 0.0359216, Final residual = 0.000139171, No Iterations 6
time step continuity errors : sum local = 1.37659, global = -0.0403371, cumulative = -0.0766661
smoothSolver:  Solving for omega, Initial residual = 0.112678, Final residual = 0.00509083, No Iterations 3
smoothSolver:  Solving for k, Initial residual = 0.11642, Final residual = 0.00820884, No Iterations 3
ExecutionTime = 18.59 s  ClockTime = 19 s

Time = 12

smoothSolver:  Solving for Ux, Initial residual = 0.646534, Final residual = 0.0582869, No Iterations 8
smoothSolver:  Solving for Uy, Initial residual = 0.663394, Final residual = 0.060591, No Iterations 9
smoothSolver:  Solving for Uz, Initial residual = 0.65235, Final residual = 0.0627971, No Iterations 8
smoothSolver:  Solving for T, Initial residual = 0.97443, Final residual = 0.0929506, No Iterations 17
GAMG:  Solving for p_rgh, Initial residual = 0.0233467, Final residual = 9.34051e-05, No Iterations 6
time step continuity errors : sum local = 4.18373, global = -0.0299555, cumulative = -0.106622
smoothSolver:  Solving for omega, Initial residual = 0.108928, Final residual = 0.00475079, No Iterations 3
smoothSolver:  Solving for k, Initial residual = 0.102742, Final residual = 0.00672661, No Iterations 3
ExecutionTime = 19.83 s  ClockTime = 20 s

Time = 13

smoothSolver:  Solving for Ux, Initial residual = 0.644149, Final residual = 0.0566225, No Iterations 7
smoothSolver:  Solving for Uy, Initial residual = 0.646193, Final residual = 0.0609146, No Iterations 8
smoothSolver:  Solving for Uz, Initial residual = 0.641383, Final residual = 0.0581599, No Iterations 7
smoothSolver:  Solving for T, Initial residual = 0.980613, Final residual = 0.0937636, No Iterations 17
GAMG:  Solving for p_rgh, Initial residual = 0.0298149, Final residual = 0.000291883, No Iterations 5
time step continuity errors : sum local = 20.3731, global = -0.478273, cumulative = -0.584894
smoothSolver:  Solving for omega, Initial residual = 0.101694, Final residual = 0.00423864, No Iterations 3
smoothSolver:  Solving for k, Initial residual = 0.086859, Final residual = 0.00568629, No Iterations 3
ExecutionTime = 21.04 s  ClockTime = 21 s

Time = 14

smoothSolver:  Solving for Ux, Initial residual = 0.641427, Final residual = 0.060862, No Iterations 8
smoothSolver:  Solving for Uy, Initial residual = 0.657707, Final residual = 0.0598455, No Iterations 9
smoothSolver:  Solving for Uz, Initial residual = 0.640469, Final residual = 0.0509628, No Iterations 9
smoothSolver:  Solving for T, Initial residual = 0.978212, Final residual = 0.0963756, No Iterations 16
GAMG:  Solving for p_rgh, Initial residual = 0.0238085, Final residual = 0.000173909, No Iterations 6
time step continuity errors : sum local = 49.3116, global = -1.40159, cumulative = -1.98648
smoothSolver:  Solving for omega, Initial residual = 0.128238, Final residual = 0.00571068, No Iterations 3
smoothSolver:  Solving for k, Initial residual = 0.0910238, Final residual = 0.00666634, No Iterations 3
ExecutionTime = 22.28 s  ClockTime = 23 s

Time = 15

smoothSolver:  Solving for Ux, Initial residual = 0.850712, Final residual = 0.0797918, No Iterations 2
smoothSolver:  Solving for Uy, Initial residual = 0.880993, Final residual = 0.0545071, No Iterations 1
smoothSolver:  Solving for Uz, Initial residual = 0.778711, Final residual = 0.0511226, No Iterations 5
smoothSolver:  Solving for T, Initial residual = 0.991167, Final residual = 0.0971179, No Iterations 28
GAMG:  Solving for p_rgh, Initial residual = 0.00779177, Final residual = 6.10213e-05, No Iterations 8
time step continuity errors : sum local = 83.9479, global = -6.46613, cumulative = -8.45261
smoothSolver:  Solving for omega, Initial residual = 0.132831, Final residual = 0.00733083, No Iterations 3
smoothSolver:  Solving for k, Initial residual = 0.109958, Final residual = 0.0109739, No Iterations 3
ExecutionTime = 23.55 s  ClockTime = 24 s

Time = 16

smoothSolver:  Solving for Ux, Initial residual = 0.61766, Final residual = 0.0486757, No Iterations 6
smoothSolver:  Solving for Uy, Initial residual = 0.610722, Final residual = 0.0590313, No Iterations 5
smoothSolver:  Solving for Uz, Initial residual = 0.590516, Final residual = 0.0498296, No Iterations 8
smoothSolver:  Solving for T, Initial residual = 0.988738, Final residual = 0.0978564, No Iterations 56
GAMG:  Solving for p_rgh, Initial residual = 0.000381587, Final residual = 1.76414e-06, No Iterations 8
time step continuity errors : sum local = 111.224, global = 2.0018, cumulative = -6.45081
smoothSolver:  Solving for omega, Initial residual = 0.106708, Final residual = 0.00670489, No Iterations 3
smoothSolver:  Solving for k, Initial residual = 0.0877264, Final residual = 0.00443613, No Iterations 4
ExecutionTime = 24.97 s  ClockTime = 25 s

Time = 17

smoothSolver:  Solving for Ux, Initial residual = 0.707615, Final residual = 0.0696343, No Iterations 9
smoothSolver:  Solving for Uy, Initial residual = 0.668028, Final residual = 0.065994, No Iterations 8
smoothSolver:  Solving for Uz, Initial residual = 0.619725, Final residual = 0.0548906, No Iterations 9
smoothSolver:  Solving for T, Initial residual = 0.98182, Final residual = 0.0972191, No Iterations 52
GAMG:  Solving for p_rgh, Initial residual = 0.000159748, Final residual = 9.25187e-07, No Iterations 7
time step continuity errors : sum local = 393.87, global = 13.4846, cumulative = 7.03378
smoothSolver:  Solving for omega, Initial residual = 0.103841, Final residual = 0.00604285, No Iterations 3
smoothSolver:  Solving for k, Initial residual = 0.0807068, Final residual = 0.00434374, No Iterations 4
ExecutionTime = 26.43 s  ClockTime = 27 s

Time = 18

smoothSolver:  Solving for Ux, Initial residual = 0.662537, Final residual = 0.0569866, No Iterations 9
smoothSolver:  Solving for Uy, Initial residual = 0.711494, Final residual = 0.0665471, No Iterations 8
smoothSolver:  Solving for Uz, Initial residual = 0.635795, Final residual = 0.0569352, No Iterations 9
smoothSolver:  Solving for T, Initial residual = 0.975046, Final residual = 0.0961463, No Iterations 49
GAMG:  Solving for p_rgh, Initial residual = 0.000761801, Final residual = 6.32337e-06, No Iterations 7
time step continuity errors : sum local = 1960.91, global = -8.43906, cumulative = -1.40529
smoothSolver:  Solving for omega, Initial residual = 0.10764, Final residual = 0.00574954, No Iterations 3
smoothSolver:  Solving for k, Initial residual = 0.0726774, Final residual = 0.00698043, No Iterations 3
ExecutionTime = 27.86 s  ClockTime = 28 s

Time = 19

smoothSolver:  Solving for Ux, Initial residual = 0.637256, Final residual = 0.0581041, No Iterations 7
smoothSolver:  Solving for Uy, Initial residual = 0.632294, Final residual = 0.0622647, No Iterations 6
smoothSolver:  Solving for Uz, Initial residual = 0.620232, Final residual = 0.0611493, No Iterations 7
smoothSolver:  Solving for T, Initial residual = 0.973307, Final residual = 0.0945655, No Iterations 25
GAMG:  Solving for p_rgh, Initial residual = 0.000386889, Final residual = 3.75382e-06, No Iterations 6
time step continuity errors : sum local = 4827.05, global = 150.011, cumulative = 148.606
smoothSolver:  Solving for omega, Initial residual = 0.0925746, Final residual = 0.004325, No Iterations 3
smoothSolver:  Solving for k, Initial residual = 0.0714091, Final residual = 0.00682477, No Iterations 3
ExecutionTime = 29.12 s  ClockTime = 30 s

Time = 20

smoothSolver:  Solving for Ux, Initial residual = 0.641175, Final residual = 0.0510035, No Iterations 9
smoothSolver:  Solving for Uy, Initial residual = 0.658552, Final residual = 0.0553387, No Iterations 8
smoothSolver:  Solving for Uz, Initial residual = 0.646676, Final residual = 0.0555379, No Iterations 8
smoothSolver:  Solving for T, Initial residual = 0.964504, Final residual = 0.0959096, No Iterations 27
GAMG:  Solving for p_rgh, Initial residual = 0.000354764, Final residual = 1.72081e-06, No Iterations 7
time step continuity errors : sum local = 6742.68, global = -237.374, cumulative = -88.7681
smoothSolver:  Solving for omega, Initial residual = 0.121186, Final residual = 0.00558359, No Iterations 3
smoothSolver:  Solving for k, Initial residual = 0.0761368, Final residual = 0.00673361, No Iterations 3
ExecutionTime = 30.39 s  ClockTime = 31 s

Time = 21

smoothSolver:  Solving for Ux, Initial residual = 0.643329, Final residual = 0.0608539, No Iterations 7
smoothSolver:  Solving for Uy, Initial residual = 0.639832, Final residual = 0.0530056, No Iterations 8
smoothSolver:  Solving for Uz, Initial residual = 0.65692, Final residual = 0.06398, No Iterations 6
smoothSolver:  Solving for T, Initial residual = 0.966465, Final residual = 0.0940995, No Iterations 20
GAMG:  Solving for p_rgh, Initial residual = 0.0761276, Final residual = 0.000577918, No Iterations 21
time step continuity errors : sum local = 2.13733e+06, global = 160224, cumulative = 160135
smoothSolver:  Solving for omega, Initial residual = 0.181729, Final residual = 0.00813401, No Iterations 3
smoothSolver:  Solving for k, Initial residual = 0.226041, Final residual = 0.0146239, No Iterations 3
ExecutionTime = 31.9 s  ClockTime = 32 s

Time = 22

smoothSolver:  Solving for Ux, Initial residual = 0.759077, Final residual = 0.0673694, No Iterations 4
smoothSolver:  Solving for Uy, Initial residual = 0.772935, Final residual = 0.0549499, No Iterations 4
smoothSolver:  Solving for Uz, Initial residual = 0.737134, Final residual = 0.0554448, No Iterations 4
smoothSolver:  Solving for T, Initial residual = 0.999904, Final residual = 0.0950584, No Iterations 16
GAMG:  Solving for p_rgh, Initial residual = 0.131127, Final residual = 0.00123098, No Iterations 44
time step continuity errors : sum local = 1.45475e+07, global = 339452, cumulative = 499587
smoothSolver:  Solving for omega, Initial residual = 0.127596, Final residual = 0.00953619, No Iterations 3
smoothSolver:  Solving for k, Initial residual = 0.107922, Final residual = 0.00649277, No Iterations 4
ExecutionTime = 33.88 s  ClockTime = 34 s

Time = 23

smoothSolver:  Solving for Ux, Initial residual = 0.574323, Final residual = 0.0520269, No Iterations 8
smoothSolver:  Solving for Uy, Initial residual = 0.55383, Final residual = 0.0508693, No Iterations 7
smoothSolver:  Solving for Uz, Initial residual = 0.591199, Final residual = 0.0519732, No Iterations 7
smoothSolver:  Solving for T, Initial residual = 0.999312, Final residual = 0.0983438, No Iterations 58
GAMG:  Solving for p_rgh, Initial residual = 2.50979e-06, Final residual = 6.00664e-08, No Iterations 6
time step continuity errors : sum local = 2.34059e+08, global = 6.70361e+06, cumulative = 7.2032e+06
smoothSolver:  Solving for omega, Initial residual = 0.0885917, Final residual = 0.00859674, No Iterations 3
smoothSolver:  Solving for k, Initial residual = 0.0957822, Final residual = 0.00620793, No Iterations 4
ExecutionTime = 35.37 s  ClockTime = 36 s

Time = 24

smoothSolver:  Solving for Ux, Initial residual = 0.528704, Final residual = 0.0475492, No Iterations 9
smoothSolver:  Solving for Uy, Initial residual = 0.577263, Final residual = 0.0481439, No Iterations 9
smoothSolver:  Solving for Uz, Initial residual = 0.616325, Final residual = 0.0595547, No Iterations 9
smoothSolver:  Solving for T, Initial residual = 0.99503, Final residual = 0.0962531, No Iterations 48
GAMG:  Solving for p_rgh, Initial residual = 2.59594e-05, Final residual = 2.53821e-07, No Iterations 230
time step continuity errors : sum local = 6.00999e+08, global = 1.5247e+08, cumulative = 1.59673e+08
smoothSolver:  Solving for omega, Initial residual = 0.0687047, Final residual = 0.00530249, No Iterations 3
smoothSolver:  Solving for k, Initial residual = 0.0728312, Final residual = 0.00442085, No Iterations 4
ExecutionTime = 41 s  ClockTime = 41 s

Time = 25

smoothSolver:  Solving for Ux, Initial residual = 0.752905, Final residual = 0.0618681, No Iterations 4
smoothSolver:  Solving for Uy, Initial residual = 0.707343, Final residual = 0.0471147, No Iterations 6
smoothSolver:  Solving for Uz, Initial residual = 0.789935, Final residual = 0.0786361, No Iterations 3
smoothSolver:  Solving for T, Initial residual = 0.993292, Final residual = 0.0970165, No Iterations 36
GAMG:  Solving for p_rgh, Initial residual = 0.000875202, Final residual = 5.51034e-06, No Iterations 7
time step continuity errors : sum local = 1.1935e+09, global = 8.0748e+07, cumulative = 2.40421e+08
smoothSolver:  Solving for omega, Initial residual = 0.0841793, Final residual = 0.00515109, No Iterations 3
smoothSolver:  Solving for k, Initial residual = 0.0718514, Final residual = 0.00390647, No Iterations 4
ExecutionTime = 42.27 s  ClockTime = 43 s

Time = 26

smoothSolver:  Solving for Ux, Initial residual = 0.646645, Final residual = 0.0578606, No Iterations 10
smoothSolver:  Solving for Uy, Initial residual = 0.653276, Final residual = 0.0542196, No Iterations 9
smoothSolver:  Solving for Uz, Initial residual = 0.612517, Final residual = 0.0611367, No Iterations 8
smoothSolver:  Solving for T, Initial residual = 0.988623, Final residual = 0.331742, No Iterations 1000
GAMG:  Solving for p_rgh, Initial residual = 0.00114613, Final residual = 8.57444e-06, No Iterations 7
time step continuity errors : sum local = 3.92479e+09, global = 4.34895e+08, cumulative = 6.75316e+08
smoothSolver:  Solving for omega, Initial residual = 0.104737, Final residual = 0.00575257, No Iterations 3
smoothSolver:  Solving for k, Initial residual = 0.0760024, Final residual = 0.00751774, No Iterations 3
ExecutionTime = 47.86 s  ClockTime = 48 s

Time = 27

smoothSolver:  Solving for Ux, Initial residual = 0.757706, Final residual = 0.065945, No Iterations 54
smoothSolver:  Solving for Uy, Initial residual = 0.655149, Final residual = 0.0577779, No Iterations 51
smoothSolver:  Solving for Uz, Initial residual = 0.763607, Final residual = 0.0747805, No Iterations 57
smoothSolver:  Solving for T, Initial residual = 0.992561, Final residual = 0.0981274, No Iterations 37
GAMG:  Solving for p_rgh, Initial residual = 0.980141, Final residual = 0.0061388, No Iterations 6
time step continuity errors : sum local = 4.12552e+17, global = 1.56577e+16, cumulative = 1.56577e+16
smoothSolver:  Solving for omega, Initial residual = 0.262977, Final residual = 0.0235403, No Iterations 2
smoothSolver:  Solving for k, Initial residual = 0.15489, Final residual = 0.0133497, No Iterations 3
ExecutionTime = 49.78 s  ClockTime = 50 s

Time = 28

smoothSolver:  Solving for Ux, Initial residual = 0.727462, Final residual = 0.0569475, No Iterations 5
smoothSolver:  Solving for Uy, Initial residual = 0.839328, Final residual = 0.0660098, No Iterations 4
smoothSolver:  Solving for Uz, Initial residual = 0.724767, Final residual = 0.0706748, No Iterations 4
smoothSolver:  Solving for T, Initial residual = 0.999999, Final residual = 0.0980186, No Iterations 22
GAMG:  Solving for p_rgh, Initial residual = 0.99997, Final residual = 0.0091275, No Iterations 32
time step continuity errors : sum local = 9.18847e+17, global = 2.58381e+16, cumulative = 4.14959e+16
smoothSolver:  Solving for omega, Initial residual = 0.100833, Final residual = 0.00915809, No Iterations 3
smoothSolver:  Solving for k, Initial residual = 0.088455, Final residual = 0.00620641, No Iterations 4
ExecutionTime = 51.48 s  ClockTime = 52 s

Time = 29

smoothSolver:  Solving for Ux, Initial residual = 0.653188, Final residual = 0.0635855, No Iterations 8
smoothSolver:  Solving for Uy, Initial residual = 0.652351, Final residual = 0.0506057, No Iterations 8
smoothSolver:  Solving for Uz, Initial residual = 0.582581, Final residual = 0.0500862, No Iterations 8
smoothSolver:  Solving for T, Initial residual = 0.999933, Final residual = 0.0997088, No Iterations 88
GAMG:  Solving for p_rgh, Initial residual = 3.63336e-06, Final residual = 9.46092e-08, No Iterations 9
time step continuity errors : sum local = 1.24524e+19, global = 2.67609e+18, cumulative = 2.71759e+18
smoothSolver:  Solving for omega, Initial residual = 0.0706261, Final residual = 0.00640022, No Iterations 3
smoothSolver:  Solving for k, Initial residual = 0.0655874, Final residual = 0.00466543, No Iterations 4
ExecutionTime = 53.14 s  ClockTime = 54 s

Time = 30

smoothSolver:  Solving for Ux, Initial residual = 0.735973, Final residual = 0.0627562, No Iterations 108
smoothSolver:  Solving for Uy, Initial residual = 0.73409, Final residual = 0.0702615, No Iterations 99
smoothSolver:  Solving for Uz, Initial residual = 0.73903, Final residual = 0.0686702, No Iterations 101
smoothSolver:  Solving for T, Initial residual = 0.690693, Final residual = 0.0686883, No Iterations 25
GAMG:  Solving for p_rgh, Initial residual = 0.932555, Final residual = 5.01685e+79, No Iterations 1000
time step continuity errors : sum local = 6.64751e+111, global = -2.1142e+111, cumulative = -2.1142e+111
smoothSolver:  Solving for omega, Initial residual = 0.0051001, Final residual = 0.000411709, No Iterations 3
smoothSolver:  Solving for k, Initial residual = 0.0252049, Final residual = 0.00167232, No Iterations 4
ExecutionTime = 73.72 s  ClockTime = 74 s

Time = 31

[4] [stack trace]
[4] =============
[1] [stack trace]
[1] =============
[1] #1  Foam::sigFpe::sigHandler(int)[4] #1  Foam::sigFpe::sigHandler(int) in /usr/lib/openfoam/openfoam2306/platforms/linux64GccDPInt32Opt/lib/libOpenFOAM.so
[1] #2  ? in /usr/lib/openfoam/openfoam2306/platforms/linux64GccDPInt32Opt/lib/libOpenFOAM.so
[4] #2  ? in /lib/x86_64-linux-gnu/libc.so.6
[1] #3  Foam::GaussSeidelSmoother::smooth(Foam::word const&, Foam::Field<double>&, Foam::lduMatrix const&, Foam::Field<double> const&, Foam::FieldField<Foam::Field, double> const&, Foam::UPtrList<Foam::lduInterfaceField const> const&, unsigned char, int) in /lib/x86_64-linux-gnu/libc.so.6
[4] #3  Foam::GaussSeidelSmoother::smooth(Foam::word const&, Foam::Field<double>&, Foam::lduMatrix const&, Foam::Field<double> const&, Foam::FieldField<Foam::Field, double> const&, Foam::UPtrList<Foam::lduInterfaceField const> const&, unsigned char, int) in /usr/lib/openfoam/openfoam2306/platforms/linux64GccDPInt32Opt/lib/libOpenFOAM.so
[1] #4  Foam::GaussSeidelSmoother::smooth(Foam::Field<double>&, Foam::Field<double> const&, unsigned char, int) const in /usr/lib/openfoam/openfoam2306/platforms/linux64GccDPInt32Opt/lib/libOpenFOAM.so
[4] #4  Foam::GaussSeidelSmoother::smooth(Foam::Field<double>&, Foam::Field<double> const&, unsigned char, int) const in /usr/lib/openfoam/openfoam2306/platforms/linux64GccDPInt32Opt/lib/libOpenFOAM.so
 in /usr/lib/openfoam/openfoam2306/platforms/linux64GccDPInt32Opt/lib/libOpenFOAM.so
[1] #5  Foam::smoothSolver::solve(Foam::Field<double>&, Foam::Field<double> const&, unsigned char) const[4] #5  Foam::smoothSolver::solve(Foam::Field<double>&, Foam::Field<double> const&, unsigned char) const in /usr/lib/openfoam/openfoam2306/platforms/linux64GccDPInt32Opt/lib/libOpenFOAM.so
[1] #6  ? in /usr/lib/openfoam/openfoam2306/platforms/linux64GccDPInt32Opt/lib/libOpenFOAM.so
[4] #6  ? in /usr/lib/openfoam/openfoam2306/platforms/linux64GccDPInt32Opt/lib/libfiniteVolume.so
[1] #7  Foam::fvMesh::solve(Foam::fvMatrix<Foam::Vector<double> >&, Foam::dictionary const&) const in /usr/lib/openfoam/openfoam2306/platforms/linux64GccDPInt32Opt/lib/libfiniteVolume.so
[4] #7  Foam::fvMesh::solve(Foam::fvMatrix<Foam::Vector<double> >&, Foam::dictionary const&) const in /usr/lib/openfoam/openfoam2306/platforms/linux64GccDPInt32Opt/lib/libfiniteVolume.so
[1] #8  ? in /usr/lib/openfoam/openfoam2306/platforms/linux64GccDPInt32Opt/lib/libfiniteVolume.so
[4] #8   in /usr/lib/openfoam/openfoam2306/platforms/linux64GccDPInt32Opt/bin/buoyantBoussinesqSimpleFoam
[1] #9  ?? in /lib/x86_64-linux-gnu/libc.so.6
[1] #10  __libc_start_main in /usr/lib/openfoam/openfoam2306/platforms/linux64GccDPInt32Opt/bin/buoyantBoussinesqSimpleFoam
[4] #9  ? in /lib/x86_64-linux-gnu/libc.so.6
[1] #11   in /lib/x86_64-linux-gnu/libc.so.6
[4] #10  __libc_start_main? in /lib/x86_64-linux-gnu/libc.so.6
[4] #11   in /usr/lib/openfoam/openfoam2306/platforms/linux64GccDPInt32Opt/bin/buoyantBoussinesqSimpleFoam
[1] =============
[TheMachine:11860] *** Process received signal ***
[TheMachine:11860] Signal: Floating point exception (8)
[TheMachine:11860] Signal code:  (-6)
[TheMachine:11860] Failing at address: 0x3e800002e54
[TheMachine:11860] [ 0] /lib/x86_64-linux-gnu/libc.so.6(+0x42520)[0x7f99a3a74520]
[TheMachine:11860] [ 1] /lib/x86_64-linux-gnu/libc.so.6(pthread_kill+0x12c)[0x7f99a3ac89fc]
[TheMachine:11860] [ 2] /lib/x86_64-linux-gnu/libc.so.6(raise+0x16)[0x7f99a3a74476]
[TheMachine:11860] [ 3] /lib/x86_64-linux-gnu/libc.so.6(+0x42520)[0x7f99a3a74520]
[TheMachine:11860] [ 4] /usr/lib/openfoam/openfoam2306/platforms/linux64GccDPInt32Opt/lib/libOpenFOAM.so(_ZN4Foam19GaussSeidelSmoother6smoothERKNS_4wordERNS_5FieldIdEERKNS_9lduMatrixERKS5_RKNS_10FieldFieldIS4_dEERKNS_8UPtrListIKNS_17lduInterfaceFieldEEEhi+0x2a0)[0x7f99a43ea650]
[TheMachine:11860] [ 5] ?/usr/lib/openfoam/openfoam2306/platforms/linux64GccDPInt32Opt/lib/libOpenFOAM.so(_ZNK4Foam19GaussSeidelSmoother6smoothERNS_5FieldIdEERKS2_hi+0x4b)[0x7f99a43ea6db]
[TheMachine:11860] [ 6] /usr/lib/openfoam/openfoam2306/platforms/linux64GccDPInt32Opt/lib/libOpenFOAM.so(_ZNK4Foam12smoothSolver5solveERNS_5FieldIdEERKS2_h+0x4b1)[0x7f99a43e6ef1]
[TheMachine:11860] [ 7] /usr/lib/openfoam/openfoam2306/platforms/linux64GccDPInt32Opt/lib/libfiniteVolume.so(+0x4b5cd6)[0x7f99a5d67cd6]
[TheMachine:11860] [ 8] /usr/lib/openfoam/openfoam2306/platforms/linux64GccDPInt32Opt/lib/libfiniteVolume.so(_ZNK4Foam6fvMesh5solveERNS_8fvMatrixINS_6VectorIdEEEERKNS_10dictionaryE+0x28)[0x7f99a5d4b448]
[TheMachine:11860] [ 9] buoyantBoussinesqSimpleFoam(+0x201e2)[0x5622da35d1e2]
[TheMachine:11860] [10] /lib/x86_64-linux-gnu/libc.so.6(+0x29d90)[0x7f99a3a5bd90]
[TheMachine:11860] [11] /lib/x86_64-linux-gnu/libc.so.6(__libc_start_main+0x80)[0x7f99a3a5be40]
[TheMachine:11860] [12] buoyantBoussinesqSimpleFoam(+0x28f85)[0x5622da365f85]
[TheMachine:11860] *** End of error message ***
 in /usr/lib/openfoam/openfoam2306/platforms/linux64GccDPInt32Opt/bin/buoyantBoussinesqSimpleFoam
[4] =============
[TheMachine:11863] *** Process received signal ***
[TheMachine:11863] Signal: Floating point exception (8)
[TheMachine:11863] Signal code:  (-6)
[TheMachine:11863] Failing at address: 0x3e800002e57
[TheMachine:11863] [ 0] /lib/x86_64-linux-gnu/libc.so.6(+0x42520)[0x7f0ad292b520]
[TheMachine:11863] [ 1] /lib/x86_64-linux-gnu/libc.so.6(pthread_kill+0x12c)[0x7f0ad297f9fc]
[TheMachine:11863] [ 2] /lib/x86_64-linux-gnu/libc.so.6(raise+0x16)[0x7f0ad292b476]
[TheMachine:11863] [ 3] /lib/x86_64-linux-gnu/libc.so.6(+0x42520)[0x7f0ad292b520]
[TheMachine:11863] [ 4] /usr/lib/openfoam/openfoam2306/platforms/linux64GccDPInt32Opt/lib/libOpenFOAM.so(_ZN4Foam19GaussSeidelSmoother6smoothERKNS_4wordERNS_5FieldIdEERKNS_9lduMatrixERKS5_RKNS_10FieldFieldIS4_dEERKNS_8UPtrListIKNS_17lduInterfaceFieldEEEhi+0x2a0)[0x7f0ad32a1650]
[TheMachine:11863] [ 5] /usr/lib/openfoam/openfoam2306/platforms/linux64GccDPInt32Opt/lib/libOpenFOAM.so(_ZNK4Foam19GaussSeidelSmoother6smoothERNS_5FieldIdEERKS2_hi+0x4b)[0x7f0ad32a16db]
[TheMachine:11863] [ 6] /usr/lib/openfoam/openfoam2306/platforms/linux64GccDPInt32Opt/lib/libOpenFOAM.so(_ZNK4Foam12smoothSolver5solveERNS_5FieldIdEERKS2_h+0x4b1)[0x7f0ad329def1]
[TheMachine:11863] [ 7] /usr/lib/openfoam/openfoam2306/platforms/linux64GccDPInt32Opt/lib/libfiniteVolume.so(+0x4b5cd6)[0x7f0ad4c1ecd6]
[TheMachine:11863] [ 8] /usr/lib/openfoam/openfoam2306/platforms/linux64GccDPInt32Opt/lib/libfiniteVolume.so(_ZNK4Foam6fvMesh5solveERNS_8fvMatrixINS_6VectorIdEEEERKNS_10dictionaryE+0x28)[0x7f0ad4c02448]
[TheMachine:11863] [ 9] buoyantBoussinesqSimpleFoam(+0x201e2)[0x560b9dab61e2]
[TheMachine:11863] [10] /lib/x86_64-linux-gnu/libc.so.6(+0x29d90)[0x7f0ad2912d90]
[TheMachine:11863] [11] /lib/x86_64-linux-gnu/libc.so.6(__libc_start_main+0x80)[0x7f0ad2912e40]
[TheMachine:11863] [12] buoyantBoussinesqSimpleFoam(+0x28f85)[0x560b9dabef85]
[TheMachine:11863] *** End of error message ***
--------------------------------------------------------------------------
Primary job  terminated normally, but 1 process returned
a non-zero exit code. Per user-direction, the job has been aborted.
--------------------------------------------------------------------------
--------------------------------------------------------------------------
mpirun noticed that process rank 1 with PID 0 on node TheMachine exited on signal 8 (Floating point exception).
--------------------------------------------------------------------------
