/*---------------------------------------------------------------------------*\
| =========                 |                                                 |
| \\      /  F ield         | OpenFOAM: The Open Source CFD Toolbox           |
|  \\    /   O peration     | Version:  2306                                  |
|   \\  /    A nd           | Website:  www.openfoam.com                      |
|    \\/     M anipulation  |                                                 |
\*---------------------------------------------------------------------------*/
Build  : _fbf00d6b-20230626 OPENFOAM=2306 version=2306
Arch   : "LSB;label=32;scalar=64"
Exec   : buoyantBoussinesqSimpleFoam -parallel -decomposeParDict system/decomposeParDict.6
Date   : Feb 05 2024
Time   : 12:55:00
Host   : TheMachine
PID    : 135721
I/O    : uncollated
Case   : /home/adrian/run/TFG_FILES/mbTest
nProcs : 6
Hosts  :
(
    (TheMachine 6)
)
Pstream initialized with:
    floatTransfer      : false
    nProcsSimpleSum    : 0
    nonBlockingExchange: 0 (tuning: 0)
    exchange algorithm : -1
    commsType          : nonBlocking
    polling iterations : 0
trapFpe: Floating point exception trapping enabled (FOAM_SIGFPE).
fileModificationChecking : Monitoring run-time modified files using timeStampMaster (fileModificationSkew 5, maxFileModificationPolls 20)
allowSystemOperations : Allowing user-supplied system call operations

// * * * * * * * * * * * * * * * * * * * * * * * * * * * * * * * * * * * * * //
Create time

Create mesh for time = 0


SIMPLE: no convergence criteria found. Calculations will run for 500 steps.

Reading thermophysical properties

Reading field T

Reading field p_rgh

Reading field U

Reading/calculating face flux field phi

Selecting incompressible transport model Newtonian
Creating turbulence model

Selecting turbulence model type RAS
Selecting RAS turbulence model kOmegaSST
Selecting patchDistMethod meshWave
RAS
{
    RASModel        kOmegaSST;
    turbulence      on;
    printCoeffs     on;
    alphaK1         0.85;
    alphaK2         1;
    alphaOmega1     0.5;
    alphaOmega2     0.856;
    gamma1          0.555556;
    gamma2          0.44;
    beta1           0.075;
    beta2           0.0828;
    betaStar        0.09;
    a1              0.31;
    b1              1;
    c1              10;
    F3              false;
    decayControl    false;
    kInf            0;
    omegaInf        0;
}

Reading field alphat


Reading g

Reading hRef
Calculating field g.h

No MRF models present

Radiation model not active: radiationProperties not found
Selecting radiationModel none
No finite volume options present

Starting time loop

Time = 1

smoothSolver:  Solving for Ux, Initial residual = 1, Final residual = 0.0932781, No Iterations 13
smoothSolver:  Solving for Uy, Initial residual = 1, Final residual = 0.0951301, No Iterations 14
smoothSolver:  Solving for Uz, Initial residual = 1, Final residual = 0.0849417, No Iterations 15
smoothSolver:  Solving for T, Initial residual = 1, Final residual = 0.0998025, No Iterations 861
GAMG:  Solving for p_rgh, Initial residual = 1, Final residual = 0.00942638, No Iterations 7
time step continuity errors : sum local = 0.00201202, global = 8.24079e-05, cumulative = 8.24079e-05
smoothSolver:  Solving for omega, Initial residual = 0.0105879, Final residual = 0.000579591, No Iterations 3
bounding omega, min: -82.1999 max: 47079.3 average: 299.63
smoothSolver:  Solving for k, Initial residual = 1, Final residual = 0.0921933, No Iterations 3
ExecutionTime = 5.55 s  ClockTime = 6 s

Time = 2

smoothSolver:  Solving for Ux, Initial residual = 0.349453, Final residual = 0.0303258, No Iterations 11
smoothSolver:  Solving for Uy, Initial residual = 0.799912, Final residual = 0.0766335, No Iterations 10
smoothSolver:  Solving for Uz, Initial residual = 0.680094, Final residual = 0.0624237, No Iterations 10
smoothSolver:  Solving for T, Initial residual = 0.0234112, Final residual = 0.00231012, No Iterations 143
GAMG:  Solving for p_rgh, Initial residual = 0.946289, Final residual = 0.00873744, No Iterations 5
time step continuity errors : sum local = 0.0902164, global = 0.0022837, cumulative = 0.00236611
smoothSolver:  Solving for omega, Initial residual = 0.0615534, Final residual = 0.00501893, No Iterations 3
smoothSolver:  Solving for k, Initial residual = 0.227805, Final residual = 0.0190234, No Iterations 3
ExecutionTime = 7.44 s  ClockTime = 8 s

Time = 3

smoothSolver:  Solving for Ux, Initial residual = 0.383197, Final residual = 0.0343571, No Iterations 6
smoothSolver:  Solving for Uy, Initial residual = 0.68847, Final residual = 0.0587981, No Iterations 8
smoothSolver:  Solving for Uz, Initial residual = 0.64284, Final residual = 0.0492492, No Iterations 7
smoothSolver:  Solving for T, Initial residual = 0.392024, Final residual = 0.0385726, No Iterations 28
GAMG:  Solving for p_rgh, Initial residual = 0.485701, Final residual = 0.00411205, No Iterations 5
time step continuity errors : sum local = 0.155384, global = 0.00702271, cumulative = 0.00938882
smoothSolver:  Solving for omega, Initial residual = 0.0736479, Final residual = 0.00610561, No Iterations 3
smoothSolver:  Solving for k, Initial residual = 0.146848, Final residual = 0.0120122, No Iterations 3
ExecutionTime = 8.73 s  ClockTime = 9 s

Time = 4

smoothSolver:  Solving for Ux, Initial residual = 0.622913, Final residual = 0.050607, No Iterations 10
smoothSolver:  Solving for Uy, Initial residual = 0.726992, Final residual = 0.0682786, No Iterations 9
smoothSolver:  Solving for Uz, Initial residual = 0.689896, Final residual = 0.0599501, No Iterations 9
smoothSolver:  Solving for T, Initial residual = 0.245281, Final residual = 0.0239424, No Iterations 33
GAMG:  Solving for p_rgh, Initial residual = 0.301376, Final residual = 0.00291779, No Iterations 5
time step continuity errors : sum local = 0.669913, global = -0.0198531, cumulative = -0.0104642
smoothSolver:  Solving for omega, Initial residual = 0.114389, Final residual = 0.00733294, No Iterations 3
smoothSolver:  Solving for k, Initial residual = 0.177515, Final residual = 0.0131414, No Iterations 3
ExecutionTime = 10.08 s  ClockTime = 10 s

Time = 5

smoothSolver:  Solving for Ux, Initial residual = 0.61028, Final residual = 0.0592197, No Iterations 8
smoothSolver:  Solving for Uy, Initial residual = 0.696349, Final residual = 0.0596535, No Iterations 9
smoothSolver:  Solving for Uz, Initial residual = 0.664549, Final residual = 0.062454, No Iterations 8
smoothSolver:  Solving for T, Initial residual = 0.436302, Final residual = 0.0425345, No Iterations 24
GAMG:  Solving for p_rgh, Initial residual = 0.154689, Final residual = 0.000910056, No Iterations 6
time step continuity errors : sum local = 1.34842, global = 0.0788529, cumulative = 0.0683887
smoothSolver:  Solving for omega, Initial residual = 0.0955823, Final residual = 0.00575857, No Iterations 3
smoothSolver:  Solving for k, Initial residual = 0.168195, Final residual = 0.0126756, No Iterations 3
ExecutionTime = 11.34 s  ClockTime = 11 s

Time = 6

smoothSolver:  Solving for Ux, Initial residual = 0.724242, Final residual = 0.0701726, No Iterations 7
smoothSolver:  Solving for Uy, Initial residual = 0.728203, Final residual = 0.0679353, No Iterations 7
smoothSolver:  Solving for Uz, Initial residual = 0.703707, Final residual = 0.0694845, No Iterations 7
smoothSolver:  Solving for T, Initial residual = 0.664296, Final residual = 0.0662078, No Iterations 22
GAMG:  Solving for p_rgh, Initial residual = 0.0744014, Final residual = 0.000673083, No Iterations 6
time step continuity errors : sum local = 4.54045, global = -0.0539446, cumulative = 0.014444
smoothSolver:  Solving for omega, Initial residual = 0.105799, Final residual = 0.00549766, No Iterations 3
smoothSolver:  Solving for k, Initial residual = 0.171689, Final residual = 0.0138558, No Iterations 3
ExecutionTime = 12.54 s  ClockTime = 13 s

Time = 7

smoothSolver:  Solving for Ux, Initial residual = 0.637043, Final residual = 0.0545388, No Iterations 8
smoothSolver:  Solving for Uy, Initial residual = 0.656847, Final residual = 0.0599526, No Iterations 8
smoothSolver:  Solving for Uz, Initial residual = 0.647856, Final residual = 0.0526009, No Iterations 8
smoothSolver:  Solving for T, Initial residual = 0.793713, Final residual = 0.0787482, No Iterations 15
GAMG:  Solving for p_rgh, Initial residual = 0.0592697, Final residual = 0.000468449, No Iterations 7
time step continuity errors : sum local = 8.62215, global = 0.346483, cumulative = 0.360927
smoothSolver:  Solving for omega, Initial residual = 0.0797292, Final residual = 0.00406045, No Iterations 3
smoothSolver:  Solving for k, Initial residual = 0.183709, Final residual = 0.0157428, No Iterations 3
ExecutionTime = 13.72 s  ClockTime = 14 s

Time = 8

smoothSolver:  Solving for Ux, Initial residual = 0.658281, Final residual = 0.060541, No Iterations 9
smoothSolver:  Solving for Uy, Initial residual = 0.655313, Final residual = 0.0650245, No Iterations 8
smoothSolver:  Solving for Uz, Initial residual = 0.645772, Final residual = 0.0538797, No Iterations 9
smoothSolver:  Solving for T, Initial residual = 0.889737, Final residual = 0.084918, No Iterations 17
GAMG:  Solving for p_rgh, Initial residual = 0.0357662, Final residual = 0.000264519, No Iterations 8
time step continuity errors : sum local = 16.3505, global = -0.760765, cumulative = -0.399838
smoothSolver:  Solving for omega, Initial residual = 0.0841498, Final residual = 0.003819, No Iterations 3
smoothSolver:  Solving for k, Initial residual = 0.183391, Final residual = 0.0127812, No Iterations 3
ExecutionTime = 14.94 s  ClockTime = 15 s

Time = 9

smoothSolver:  Solving for Ux, Initial residual = 0.65134, Final residual = 0.0525704, No Iterations 9
smoothSolver:  Solving for Uy, Initial residual = 0.667858, Final residual = 0.0563382, No Iterations 9
smoothSolver:  Solving for Uz, Initial residual = 0.649064, Final residual = 0.0628587, No Iterations 8
smoothSolver:  Solving for T, Initial residual = 0.926702, Final residual = 0.0877759, No Iterations 16
GAMG:  Solving for p_rgh, Initial residual = 0.0186079, Final residual = 0.000153849, No Iterations 6
time step continuity errors : sum local = 49.9351, global = 0.978556, cumulative = 0.578718
smoothSolver:  Solving for omega, Initial residual = 0.0727255, Final residual = 0.00326759, No Iterations 3
smoothSolver:  Solving for k, Initial residual = 0.1776, Final residual = 0.0122965, No Iterations 3
ExecutionTime = 16.14 s  ClockTime = 16 s

Time = 10

smoothSolver:  Solving for Ux, Initial residual = 0.658014, Final residual = 0.0623419, No Iterations 9
smoothSolver:  Solving for Uy, Initial residual = 0.660504, Final residual = 0.0534886, No Iterations 9
smoothSolver:  Solving for Uz, Initial residual = 0.652371, Final residual = 0.0553701, No Iterations 9
smoothSolver:  Solving for T, Initial residual = 0.954823, Final residual = 0.0899113, No Iterations 14
GAMG:  Solving for p_rgh, Initial residual = 0.0441581, Final residual = 0.000420391, No Iterations 7
time step continuity errors : sum local = 128.958, global = -1.62336, cumulative = -1.04464
smoothSolver:  Solving for omega, Initial residual = 0.0729737, Final residual = 0.0030719, No Iterations 3
smoothSolver:  Solving for k, Initial residual = 0.164013, Final residual = 0.0134281, No Iterations 3
ExecutionTime = 17.45 s  ClockTime = 18 s

Time = 11

smoothSolver:  Solving for Ux, Initial residual = 0.64347, Final residual = 0.0619837, No Iterations 8
smoothSolver:  Solving for Uy, Initial residual = 0.658125, Final residual = 0.0633722, No Iterations 8
smoothSolver:  Solving for Uz, Initial residual = 0.636108, Final residual = 0.0592665, No Iterations 8
smoothSolver:  Solving for T, Initial residual = 0.965506, Final residual = 0.0887594, No Iterations 13
GAMG:  Solving for p_rgh, Initial residual = 0.00827666, Final residual = 6.92122e-05, No Iterations 6
time step continuity errors : sum local = 257.5, global = 7.93093, cumulative = 6.88629
smoothSolver:  Solving for omega, Initial residual = 0.0746512, Final residual = 0.0031275, No Iterations 3
smoothSolver:  Solving for k, Initial residual = 0.15862, Final residual = 0.0117004, No Iterations 3
ExecutionTime = 18.78 s  ClockTime = 19 s

Time = 12

smoothSolver:  Solving for Ux, Initial residual = 0.661942, Final residual = 0.060406, No Iterations 9
smoothSolver:  Solving for Uy, Initial residual = 0.67156, Final residual = 0.0639486, No Iterations 8
smoothSolver:  Solving for Uz, Initial residual = 0.67085, Final residual = 0.0643416, No Iterations 8
smoothSolver:  Solving for T, Initial residual = 0.967233, Final residual = 0.0964574, No Iterations 14
GAMG:  Solving for p_rgh, Initial residual = 0.0236411, Final residual = 0.000217464, No Iterations 7
time step continuity errors : sum local = 746.099, global = -30.4721, cumulative = -23.5859
smoothSolver:  Solving for omega, Initial residual = 0.0689301, Final residual = 0.00279074, No Iterations 3
smoothSolver:  Solving for k, Initial residual = 0.143225, Final residual = 0.0115958, No Iterations 3
ExecutionTime = 20.12 s  ClockTime = 20 s

Time = 13

smoothSolver:  Solving for Ux, Initial residual = 0.639339, Final residual = 0.0579779, No Iterations 8
smoothSolver:  Solving for Uy, Initial residual = 0.647117, Final residual = 0.054444, No Iterations 8
smoothSolver:  Solving for Uz, Initial residual = 0.612587, Final residual = 0.058344, No Iterations 8
smoothSolver:  Solving for T, Initial residual = 0.973847, Final residual = 0.0937449, No Iterations 12
GAMG:  Solving for p_rgh, Initial residual = 0.00531345, Final residual = 5.17465e-05, No Iterations 6
time step continuity errors : sum local = 1712.73, global = -12.8996, cumulative = -36.4854
smoothSolver:  Solving for omega, Initial residual = 0.0748486, Final residual = 0.00297159, No Iterations 3
smoothSolver:  Solving for k, Initial residual = 0.144553, Final residual = 0.010558, No Iterations 3
ExecutionTime = 21.39 s  ClockTime = 21 s

Time = 14

smoothSolver:  Solving for Ux, Initial residual = 0.655415, Final residual = 0.0604032, No Iterations 8
smoothSolver:  Solving for Uy, Initial residual = 0.670736, Final residual = 0.0629073, No Iterations 7
smoothSolver:  Solving for Uz, Initial residual = 0.665508, Final residual = 0.0594381, No Iterations 8
smoothSolver:  Solving for T, Initial residual = 0.972709, Final residual = 0.0952052, No Iterations 12
GAMG:  Solving for p_rgh, Initial residual = 0.015986, Final residual = 0.000129824, No Iterations 12
time step continuity errors : sum local = 3813.55, global = -99.3229, cumulative = -135.808
smoothSolver:  Solving for omega, Initial residual = 0.0698911, Final residual = 0.00270416, No Iterations 3
smoothSolver:  Solving for k, Initial residual = 0.136617, Final residual = 0.0104478, No Iterations 3
ExecutionTime = 22.75 s  ClockTime = 23 s

Time = 15

smoothSolver:  Solving for Ux, Initial residual = 0.640093, Final residual = 0.0520996, No Iterations 8
smoothSolver:  Solving for Uy, Initial residual = 0.654307, Final residual = 0.0651157, No Iterations 6
smoothSolver:  Solving for Uz, Initial residual = 0.590407, Final residual = 0.0526228, No Iterations 9
smoothSolver:  Solving for T, Initial residual = 0.974873, Final residual = 0.094034, No Iterations 14
GAMG:  Solving for p_rgh, Initial residual = 0.00626142, Final residual = 4.33582e-05, No Iterations 9
time step continuity errors : sum local = 6899.1, global = -21.568, cumulative = -157.376
smoothSolver:  Solving for omega, Initial residual = 0.0763055, Final residual = 0.00753638, No Iterations 2
smoothSolver:  Solving for k, Initial residual = 0.132936, Final residual = 0.0100608, No Iterations 3
ExecutionTime = 24.05 s  ClockTime = 24 s

Time = 16

smoothSolver:  Solving for Ux, Initial residual = 0.606625, Final residual = 0.0583748, No Iterations 7
smoothSolver:  Solving for Uy, Initial residual = 0.674571, Final residual = 0.0527759, No Iterations 6
smoothSolver:  Solving for Uz, Initial residual = 0.64484, Final residual = 0.0626042, No Iterations 7
smoothSolver:  Solving for T, Initial residual = 0.9752, Final residual = 0.0957156, No Iterations 16
GAMG:  Solving for p_rgh, Initial residual = 0.0127472, Final residual = 0.000127432, No Iterations 13
time step continuity errors : sum local = 26228.3, global = 389.63, cumulative = 232.254
smoothSolver:  Solving for omega, Initial residual = 0.0711349, Final residual = 0.00248585, No Iterations 3
smoothSolver:  Solving for k, Initial residual = 0.133096, Final residual = 0.0103446, No Iterations 3
ExecutionTime = 25.36 s  ClockTime = 25 s

Time = 17

smoothSolver:  Solving for Ux, Initial residual = 0.618578, Final residual = 0.0537868, No Iterations 7
smoothSolver:  Solving for Uy, Initial residual = 0.586984, Final residual = 0.0458235, No Iterations 7
smoothSolver:  Solving for Uz, Initial residual = 0.516241, Final residual = 0.0472015, No Iterations 11
smoothSolver:  Solving for T, Initial residual = 0.975137, Final residual = 0.0947892, No Iterations 13
GAMG:  Solving for p_rgh, Initial residual = 0.00421773, Final residual = 3.9967e-05, No Iterations 11
time step continuity errors : sum local = 57768.2, global = -1842.57, cumulative = -1610.32
smoothSolver:  Solving for omega, Initial residual = 0.0832795, Final residual = 0.00789969, No Iterations 2
smoothSolver:  Solving for k, Initial residual = 0.120768, Final residual = 0.00922149, No Iterations 3
ExecutionTime = 26.69 s  ClockTime = 27 s

Time = 18

smoothSolver:  Solving for Ux, Initial residual = 0.594743, Final residual = 0.0517964, No Iterations 6
smoothSolver:  Solving for Uy, Initial residual = 0.703652, Final residual = 0.0521836, No Iterations 5
smoothSolver:  Solving for Uz, Initial residual = 0.692634, Final residual = 0.065444, No Iterations 6
smoothSolver:  Solving for T, Initial residual = 0.975684, Final residual = 0.0960502, No Iterations 16
GAMG:  Solving for p_rgh, Initial residual = 0.00408591, Final residual = 3.71441e-05, No Iterations 30
time step continuity errors : sum local = 132602, global = -3030.77, cumulative = -4641.09
smoothSolver:  Solving for omega, Initial residual = 0.0832745, Final residual = 0.00808412, No Iterations 2
smoothSolver:  Solving for k, Initial residual = 0.118959, Final residual = 0.0090993, No Iterations 3
ExecutionTime = 28.4 s  ClockTime = 28 s

Time = 19

smoothSolver:  Solving for Ux, Initial residual = 0.631607, Final residual = 0.0514788, No Iterations 6
smoothSolver:  Solving for Uy, Initial residual = 0.567598, Final residual = 0.0449682, No Iterations 6
smoothSolver:  Solving for Uz, Initial residual = 0.519111, Final residual = 0.0441365, No Iterations 11
smoothSolver:  Solving for T, Initial residual = 0.970133, Final residual = 0.0964318, No Iterations 17
GAMG:  Solving for p_rgh, Initial residual = 0.00324297, Final residual = 1.55165e-05, No Iterations 8
time step continuity errors : sum local = 179161, global = 3829.2, cumulative = -811.886
smoothSolver:  Solving for omega, Initial residual = 0.0922855, Final residual = 0.00807776, No Iterations 2
smoothSolver:  Solving for k, Initial residual = 0.114741, Final residual = 0.00810124, No Iterations 3
ExecutionTime = 29.7 s  ClockTime = 30 s

Time = 20

smoothSolver:  Solving for Ux, Initial residual = 0.580281, Final residual = 0.0510959, No Iterations 6
smoothSolver:  Solving for Uy, Initial residual = 0.671105, Final residual = 0.0405216, No Iterations 5
smoothSolver:  Solving for Uz, Initial residual = 0.638709, Final residual = 0.0551077, No Iterations 8
smoothSolver:  Solving for T, Initial residual = 0.974477, Final residual = 0.094512, No Iterations 19
GAMG:  Solving for p_rgh, Initial residual = 0.00275502, Final residual = 2.64126e-05, No Iterations 23
time step continuity errors : sum local = 814376, global = -25804.4, cumulative = -26616.3
smoothSolver:  Solving for omega, Initial residual = 0.095609, Final residual = 0.0089083, No Iterations 2
smoothSolver:  Solving for k, Initial residual = 0.11793, Final residual = 0.00891688, No Iterations 3
ExecutionTime = 31.3 s  ClockTime = 31 s

Time = 21

smoothSolver:  Solving for Ux, Initial residual = 0.60399, Final residual = 0.0540618, No Iterations 6
smoothSolver:  Solving for Uy, Initial residual = 0.607918, Final residual = 0.0443936, No Iterations 5
smoothSolver:  Solving for Uz, Initial residual = 0.579359, Final residual = 0.0503876, No Iterations 9
smoothSolver:  Solving for T, Initial residual = 0.969855, Final residual = 0.0956021, No Iterations 17
GAMG:  Solving for p_rgh, Initial residual = 0.000765452, Final residual = 6.35422e-06, No Iterations 15
time step continuity errors : sum local = 1.97875e+06, global = -44663.5, cumulative = -71279.7
smoothSolver:  Solving for omega, Initial residual = 0.115778, Final residual = 0.010498, No Iterations 2
smoothSolver:  Solving for k, Initial residual = 0.107299, Final residual = 0.00816417, No Iterations 3
ExecutionTime = 32.63 s  ClockTime = 33 s

Time = 22

smoothSolver:  Solving for Ux, Initial residual = 0.581718, Final residual = 0.049648, No Iterations 5
smoothSolver:  Solving for Uy, Initial residual = 0.630401, Final residual = 0.0475141, No Iterations 4
smoothSolver:  Solving for Uz, Initial residual = 0.621338, Final residual = 0.0580803, No Iterations 8
smoothSolver:  Solving for T, Initial residual = 0.97155, Final residual = 0.0969708, No Iterations 22
GAMG:  Solving for p_rgh, Initial residual = 0.000500067, Final residual = 4.49523e-06, No Iterations 6
time step continuity errors : sum local = 5.01217e+06, global = -47388.5, cumulative = -118668
smoothSolver:  Solving for omega, Initial residual = 0.133806, Final residual = 0.0123618, No Iterations 2
smoothSolver:  Solving for k, Initial residual = 0.12056, Final residual = 0.00919613, No Iterations 3
ExecutionTime = 33.83 s  ClockTime = 34 s

Time = 23

smoothSolver:  Solving for Ux, Initial residual = 0.643195, Final residual = 0.052667, No Iterations 6
smoothSolver:  Solving for Uy, Initial residual = 0.632322, Final residual = 0.047705, No Iterations 5
smoothSolver:  Solving for Uz, Initial residual = 0.609293, Final residual = 0.0599809, No Iterations 7
smoothSolver:  Solving for T, Initial residual = 0.96477, Final residual = 0.0939773, No Iterations 20
GAMG:  Solving for p_rgh, Initial residual = 0.000113641, Final residual = 5.85614e-07, No Iterations 7
time step continuity errors : sum local = 7.8913e+06, global = -210412, cumulative = -329080
smoothSolver:  Solving for omega, Initial residual = 0.129953, Final residual = 0.0105524, No Iterations 2
smoothSolver:  Solving for k, Initial residual = 0.118018, Final residual = 0.00842052, No Iterations 3
ExecutionTime = 35.02 s  ClockTime = 35 s

Time = 24

smoothSolver:  Solving for Ux, Initial residual = 0.567687, Final residual = 0.0436719, No Iterations 6
smoothSolver:  Solving for Uy, Initial residual = 0.659252, Final residual = 0.0603031, No Iterations 4
smoothSolver:  Solving for Uz, Initial residual = 0.644349, Final residual = 0.0588293, No Iterations 9
smoothSolver:  Solving for T, Initial residual = 0.966743, Final residual = 0.0962713, No Iterations 26
GAMG:  Solving for p_rgh, Initial residual = 0.000207314, Final residual = 2.03663e-06, No Iterations 6
time step continuity errors : sum local = 4.56009e+07, global = 5.9996e+06, cumulative = 5.67052e+06
smoothSolver:  Solving for omega, Initial residual = 0.161568, Final residual = 0.0117114, No Iterations 2
smoothSolver:  Solving for k, Initial residual = 0.112353, Final residual = 0.00847441, No Iterations 3
ExecutionTime = 36.26 s  ClockTime = 36 s

Time = 25

smoothSolver:  Solving for Ux, Initial residual = 0.680755, Final residual = 0.0553557, No Iterations 8
smoothSolver:  Solving for Uy, Initial residual = 0.655951, Final residual = 0.0609938, No Iterations 5
smoothSolver:  Solving for Uz, Initial residual = 0.661432, Final residual = 0.053382, No Iterations 8
smoothSolver:  Solving for T, Initial residual = 0.964912, Final residual = 0.0947414, No Iterations 33
GAMG:  Solving for p_rgh, Initial residual = 6.16752e-05, Final residual = 3.33638e-07, No Iterations 7
time step continuity errors : sum local = 6.52996e+07, global = -900887, cumulative = 4.76963e+06
smoothSolver:  Solving for omega, Initial residual = 0.150519, Final residual = 0.0101379, No Iterations 2
smoothSolver:  Solving for k, Initial residual = 0.120123, Final residual = 0.00978872, No Iterations 3
ExecutionTime = 37.61 s  ClockTime = 38 s

Time = 26

smoothSolver:  Solving for Ux, Initial residual = 0.601771, Final residual = 0.0562001, No Iterations 5
smoothSolver:  Solving for Uy, Initial residual = 0.640011, Final residual = 0.0619863, No Iterations 4
smoothSolver:  Solving for Uz, Initial residual = 0.652262, Final residual = 0.059194, No Iterations 10
smoothSolver:  Solving for T, Initial residual = 0.957888, Final residual = 0.0947402, No Iterations 23
GAMG:  Solving for p_rgh, Initial residual = 0.000124888, Final residual = 9.76626e-07, No Iterations 5
time step continuity errors : sum local = 3.18405e+08, global = -5.53491e+07, cumulative = -5.05795e+07
smoothSolver:  Solving for omega, Initial residual = 0.222035, Final residual = 0.0137022, No Iterations 2
smoothSolver:  Solving for k, Initial residual = 0.102111, Final residual = 0.00863736, No Iterations 3
ExecutionTime = 38.86 s  ClockTime = 39 s

Time = 27

smoothSolver:  Solving for Ux, Initial residual = 0.604572, Final residual = 0.0561706, No Iterations 5
smoothSolver:  Solving for Uy, Initial residual = 0.644057, Final residual = 0.0441683, No Iterations 5
smoothSolver:  Solving for Uz, Initial residual = 0.601792, Final residual = 0.0513004, No Iterations 8
smoothSolver:  Solving for T, Initial residual = 0.956462, Final residual = 0.094432, No Iterations 36
GAMG:  Solving for p_rgh, Initial residual = 1.79064e-05, Final residual = 9.4764e-08, No Iterations 6
time step continuity errors : sum local = 5.65354e+08, global = -2.07482e+07, cumulative = -7.13276e+07
smoothSolver:  Solving for omega, Initial residual = 0.187881, Final residual = 0.00897036, No Iterations 2
smoothSolver:  Solving for k, Initial residual = 0.11128, Final residual = 0.00827118, No Iterations 3
ExecutionTime = 40.22 s  ClockTime = 40 s

Time = 28

smoothSolver:  Solving for Ux, Initial residual = 0.574521, Final residual = 0.0474598, No Iterations 31
smoothSolver:  Solving for Uy, Initial residual = 0.655337, Final residual = 0.0632538, No Iterations 36
smoothSolver:  Solving for Uz, Initial residual = 0.670771, Final residual = 0.0640376, No Iterations 36
smoothSolver:  Solving for T, Initial residual = 0.85006, Final residual = 0.0837154, No Iterations 36
GAMG:  Solving for p_rgh, Initial residual = 0.878793, Final residual = 0.00752058, No Iterations 42
time step continuity errors : sum local = 6.97354e+15, global = 2.84263e+14, cumulative = 2.84263e+14
smoothSolver:  Solving for omega, Initial residual = 0.203456, Final residual = 0.0114855, No Iterations 3
smoothSolver:  Solving for k, Initial residual = 0.377219, Final residual = 0.0179387, No Iterations 3
ExecutionTime = 42.52 s  ClockTime = 43 s

Time = 29

smoothSolver:  Solving for Ux, Initial residual = 0.661497, Final residual = 0.0557474, No Iterations 4
smoothSolver:  Solving for Uy, Initial residual = 0.689751, Final residual = 0.0476048, No Iterations 5
smoothSolver:  Solving for Uz, Initial residual = 0.73528, Final residual = 0.04941, No Iterations 5
[5] [stack trace]
[5] =============
[5] #1  Foam::sigFpe::sigHandler(int) in /usr/lib/openfoam/openfoam2306/platforms/linux64GccDPInt32Opt/lib/libOpenFOAM.so
[5] #2  ? in /lib/x86_64-linux-gnu/libc.so.6
[5] #3  Foam::GaussSeidelSmoother::smooth(Foam::word const&, Foam::Field<double>&, Foam::lduMatrix const&, Foam::Field<double> const&, Foam::FieldField<Foam::Field, double> const&, Foam::UPtrList<Foam::lduInterfaceField const> const&, unsigned char, int) in /usr/lib/openfoam/openfoam2306/platforms/linux64GccDPInt32Opt/lib/libOpenFOAM.so
[5] #4  Foam::GaussSeidelSmoother::smooth(Foam::Field<double>&, Foam::Field<double> const&, unsigned char, int) const in /usr/lib/openfoam/openfoam2306/platforms/linux64GccDPInt32Opt/lib/libOpenFOAM.so
[5] #5  Foam::smoothSolver::solve(Foam::Field<double>&, Foam::Field<double> const&, unsigned char) const in /usr/lib/openfoam/openfoam2306/platforms/linux64GccDPInt32Opt/lib/libOpenFOAM.so
[5] #6  Foam::fvMatrix<double>::solveSegregated(Foam::dictionary const&) in /usr/lib/openfoam/openfoam2306/platforms/linux64GccDPInt32Opt/lib/libfiniteVolume.so
[5] #7  ? in /usr/lib/openfoam/openfoam2306/platforms/linux64GccDPInt32Opt/lib/libfiniteVolume.so
[5] #8  Foam::fvMesh::solve(Foam::fvMatrix<double>&, Foam::dictionary const&) const in /usr/lib/openfoam/openfoam2306/platforms/linux64GccDPInt32Opt/lib/libfiniteVolume.so
[5] #9  ? in /usr/lib/openfoam/openfoam2306/platforms/linux64GccDPInt32Opt/bin/buoyantBoussinesqSimpleFoam
[5] #10  ? in /usr/lib/openfoam/openfoam2306/platforms/linux64GccDPInt32Opt/bin/buoyantBoussinesqSimpleFoam
[5] #11  ? in /lib/x86_64-linux-gnu/libc.so.6
[5] #12  __libc_start_main in /lib/x86_64-linux-gnu/libc.so.6
[5] #13  ? in /usr/lib/openfoam/openfoam2306/platforms/linux64GccDPInt32Opt/bin/buoyantBoussinesqSimpleFoam
[5] =============
[TheMachine:135726] *** Process received signal ***
[TheMachine:135726] Signal: Floating point exception (8)
[TheMachine:135726] Signal code:  (-6)
[TheMachine:135726] Failing at address: 0x3e80002122e
[TheMachine:135726] [ 0] /lib/x86_64-linux-gnu/libc.so.6(+0x42520)[0x7fdc8a9f4520]
[TheMachine:135726] [ 1] /lib/x86_64-linux-gnu/libc.so.6(pthread_kill+0x12c)[0x7fdc8aa489fc]
[TheMachine:135726] [ 2] /lib/x86_64-linux-gnu/libc.so.6(raise+0x16)[0x7fdc8a9f4476]
[TheMachine:135726] [ 3] /lib/x86_64-linux-gnu/libc.so.6(+0x42520)[0x7fdc8a9f4520]
[TheMachine:135726] [ 4] /usr/lib/openfoam/openfoam2306/platforms/linux64GccDPInt32Opt/lib/libOpenFOAM.so(_ZN4Foam19GaussSeidelSmoother6smoothERKNS_4wordERNS_5FieldIdEERKNS_9lduMatrixERKS5_RKNS_10FieldFieldIS4_dEERKNS_8UPtrListIKNS_17lduInterfaceFieldEEEhi+0x2a0)[0x7fdc8b36a650]
[TheMachine:135726] [ 5] /usr/lib/openfoam/openfoam2306/platforms/linux64GccDPInt32Opt/lib/libOpenFOAM.so(_ZNK4Foam19GaussSeidelSmoother6smoothERNS_5FieldIdEERKS2_hi+0x4b)[0x7fdc8b36a6db]
[TheMachine:135726] [ 6] /usr/lib/openfoam/openfoam2306/platforms/linux64GccDPInt32Opt/lib/libOpenFOAM.so(_ZNK4Foam12smoothSolver5solveERNS_5FieldIdEERKS2_h+0x4b1)[0x7fdc8b366ef1]
[TheMachine:135726] [ 7] /usr/lib/openfoam/openfoam2306/platforms/linux64GccDPInt32Opt/lib/libfiniteVolume.so(_ZN4Foam8fvMatrixIdE15solveSegregatedERKNS_10dictionaryE+0x478)[0x7fdc8d0fe6e8]
[TheMachine:135726] [ 8] /usr/lib/openfoam/openfoam2306/platforms/linux64GccDPInt32Opt/lib/libfiniteVolume.so(+0x4a92bf)[0x7fdc8ccdb2bf]
[TheMachine:135726] [ 9] /usr/lib/openfoam/openfoam2306/platforms/linux64GccDPInt32Opt/lib/libfiniteVolume.so(_ZNK4Foam6fvMesh5solveERNS_8fvMatrixIdEERKNS_10dictionaryE+0x28)[0x7fdc8cccb3f8]
[TheMachine:135726] [10] buoyantBoussinesqSimpleFoam(+0x342f7)[0x55657037a2f7]
[TheMachine:135726] [11] buoyantBoussinesqSimpleFoam(+0x20bc0)[0x556570366bc0]
[TheMachine:135726] [12] /lib/x86_64-linux-gnu/libc.so.6(+0x29d90)[0x7fdc8a9dbd90]
[TheMachine:135726] [13] /lib/x86_64-linux-gnu/libc.so.6(__libc_start_main+0x80)[0x7fdc8a9dbe40]
[TheMachine:135726] [14] buoyantBoussinesqSimpleFoam(+0x28f85)[0x55657036ef85]
[TheMachine:135726] *** End of error message ***
--------------------------------------------------------------------------
Primary job  terminated normally, but 1 process returned
a non-zero exit code. Per user-direction, the job has been aborted.
--------------------------------------------------------------------------
--------------------------------------------------------------------------
mpirun noticed that process rank 5 with PID 0 on node TheMachine exited on signal 8 (Floating point exception).
--------------------------------------------------------------------------
