/*---------------------------------------------------------------------------*\
| =========                 |                                                 |
| \\      /  F ield         | OpenFOAM: The Open Source CFD Toolbox           |
|  \\    /   O peration     | Version:  2306                                  |
|   \\  /    A nd           | Website:  www.openfoam.com                      |
|    \\/     M anipulation  |                                                 |
\*---------------------------------------------------------------------------*/
Build  : _fbf00d6b-20230626 OPENFOAM=2306 version=2306
Arch   : "LSB;label=32;scalar=64"
Exec   : buoyantBoussinesqSimpleFoam -parallel -decomposeParDict system/decomposeParDict.6
Date   : Jan 31 2024
Time   : 15:53:55
Host   : TheMachine
PID    : 352616
I/O    : uncollated
Case   : /home/adrian/run/TFG_FILES/mbTest
nProcs : 6
Hosts  :
(
    (TheMachine 6)
)
Pstream initialized with:
    floatTransfer      : false
    nProcsSimpleSum    : 0
    nonBlockingExchange: 0 (tuning: 0)
    exchange algorithm : -1
    commsType          : nonBlocking
    polling iterations : 0
trapFpe: Floating point exception trapping enabled (FOAM_SIGFPE).
fileModificationChecking : Monitoring run-time modified files using timeStampMaster (fileModificationSkew 5, maxFileModificationPolls 20)
allowSystemOperations : Allowing user-supplied system call operations

// * * * * * * * * * * * * * * * * * * * * * * * * * * * * * * * * * * * * * //
Create time

Create mesh for time = 0


SIMPLE: no convergence criteria found. Calculations will run for 500 steps.

Reading thermophysical properties

Reading field T

Reading field p_rgh

Reading field U

Reading/calculating face flux field phi

Selecting incompressible transport model Newtonian
Creating turbulence model

Selecting turbulence model type RAS
Selecting RAS turbulence model kOmegaSST
Selecting patchDistMethod meshWave
RAS
{
    RASModel        kOmegaSST;
    turbulence      on;
    printCoeffs     on;
    alphaK1         0.85;
    alphaK2         1;
    alphaOmega1     0.5;
    alphaOmega2     0.856;
    gamma1          0.555556;
    gamma2          0.44;
    beta1           0.075;
    beta2           0.0828;
    betaStar        0.09;
    a1              0.31;
    b1              1;
    c1              10;
    F3              false;
    decayControl    false;
    kInf            0;
    omegaInf        0;
}

Reading field alphat


Reading g

Reading hRef
Calculating field g.h

No MRF models present

Radiation model not active: radiationProperties not found
Selecting radiationModel none
No finite volume options present

Starting time loop

Time = 1

smoothSolver:  Solving for Ux, Initial residual = 1, Final residual = 0.0905929, No Iterations 9
smoothSolver:  Solving for Uy, Initial residual = 1, Final residual = 0.0947956, No Iterations 14
smoothSolver:  Solving for Uz, Initial residual = 1, Final residual = 0.0929416, No Iterations 14
smoothSolver:  Solving for T, Initial residual = 1, Final residual = 0.700208, No Iterations 1000
GAMG:  Solving for p_rgh, Initial residual = 1, Final residual = 0.00914181, No Iterations 7
time step continuity errors : sum local = 0.00201543, global = 8.2279e-05, cumulative = 8.2279e-05
smoothSolver:  Solving for omega, Initial residual = 0.0105911, Final residual = 0.000579891, No Iterations 3
bounding omega, min: -82.2019 max: 47079.3 average: 299.607
smoothSolver:  Solving for k, Initial residual = 1, Final residual = 0.0791235, No Iterations 3
ExecutionTime = 6.26 s  ClockTime = 6 s

Time = 2

smoothSolver:  Solving for Ux, Initial residual = 0.350136, Final residual = 0.0307154, No Iterations 11
smoothSolver:  Solving for Uy, Initial residual = 0.799315, Final residual = 0.0767983, No Iterations 10
smoothSolver:  Solving for Uz, Initial residual = 0.681814, Final residual = 0.0629073, No Iterations 10
smoothSolver:  Solving for T, Initial residual = 0.0223333, Final residual = 0.00219675, No Iterations 148
GAMG:  Solving for p_rgh, Initial residual = 0.948565, Final residual = 0.00818935, No Iterations 5
time step continuity errors : sum local = 0.0876188, global = 0.00220625, cumulative = 0.00228853
smoothSolver:  Solving for omega, Initial residual = 0.0640216, Final residual = 0.00516982, No Iterations 3
smoothSolver:  Solving for k, Initial residual = 0.205439, Final residual = 0.0176899, No Iterations 3
ExecutionTime = 8.07 s  ClockTime = 8 s

Time = 3

smoothSolver:  Solving for Ux, Initial residual = 0.385809, Final residual = 0.0338924, No Iterations 6
smoothSolver:  Solving for Uy, Initial residual = 0.687883, Final residual = 0.057576, No Iterations 8
smoothSolver:  Solving for Uz, Initial residual = 0.643538, Final residual = 0.0633834, No Iterations 6
smoothSolver:  Solving for T, Initial residual = 0.584683, Final residual = 0.0555, No Iterations 25
GAMG:  Solving for p_rgh, Initial residual = 0.484584, Final residual = 0.0040288, No Iterations 5
time step continuity errors : sum local = 0.152408, global = 0.00698477, cumulative = 0.0092733
smoothSolver:  Solving for omega, Initial residual = 0.0741031, Final residual = 0.00606891, No Iterations 3
smoothSolver:  Solving for k, Initial residual = 0.127824, Final residual = 0.0110232, No Iterations 3
ExecutionTime = 9.25 s  ClockTime = 9 s

Time = 4

smoothSolver:  Solving for Ux, Initial residual = 0.622729, Final residual = 0.0507356, No Iterations 10
smoothSolver:  Solving for Uy, Initial residual = 0.727108, Final residual = 0.0685002, No Iterations 9
smoothSolver:  Solving for Uz, Initial residual = 0.691009, Final residual = 0.0597809, No Iterations 9
smoothSolver:  Solving for T, Initial residual = 0.559135, Final residual = 0.0549071, No Iterations 27
GAMG:  Solving for p_rgh, Initial residual = 0.306889, Final residual = 0.00301119, No Iterations 5
time step continuity errors : sum local = 0.684017, global = -0.020425, cumulative = -0.0111517
smoothSolver:  Solving for omega, Initial residual = 0.11599, Final residual = 0.00736075, No Iterations 3
smoothSolver:  Solving for k, Initial residual = 0.156521, Final residual = 0.0119824, No Iterations 3
ExecutionTime = 10.46 s  ClockTime = 11 s

Time = 5

smoothSolver:  Solving for Ux, Initial residual = 0.610365, Final residual = 0.0584918, No Iterations 8
smoothSolver:  Solving for Uy, Initial residual = 0.695061, Final residual = 0.0587066, No Iterations 9
smoothSolver:  Solving for Uz, Initial residual = 0.662876, Final residual = 0.0606275, No Iterations 8
smoothSolver:  Solving for T, Initial residual = 0.75176, Final residual = 0.0736289, No Iterations 25
GAMG:  Solving for p_rgh, Initial residual = 0.156142, Final residual = 0.00106515, No Iterations 6
time step continuity errors : sum local = 1.55466, global = 0.0461605, cumulative = 0.0350087
smoothSolver:  Solving for omega, Initial residual = 0.0920362, Final residual = 0.00554933, No Iterations 3
smoothSolver:  Solving for k, Initial residual = 0.148071, Final residual = 0.0112696, No Iterations 3
ExecutionTime = 11.64 s  ClockTime = 12 s

Time = 6

smoothSolver:  Solving for Ux, Initial residual = 0.670518, Final residual = 0.0562772, No Iterations 9
smoothSolver:  Solving for Uy, Initial residual = 0.672453, Final residual = 0.0640425, No Iterations 8
smoothSolver:  Solving for Uz, Initial residual = 0.665415, Final residual = 0.0655757, No Iterations 8
smoothSolver:  Solving for T, Initial residual = 0.858159, Final residual = 0.0854517, No Iterations 20
GAMG:  Solving for p_rgh, Initial residual = 0.076937, Final residual = 0.000694119, No Iterations 6
time step continuity errors : sum local = 4.68266, global = -0.0510919, cumulative = -0.0160832
smoothSolver:  Solving for omega, Initial residual = 0.10262, Final residual = 0.00530129, No Iterations 3
smoothSolver:  Solving for k, Initial residual = 0.160906, Final residual = 0.0127387, No Iterations 3
ExecutionTime = 12.9 s  ClockTime = 13 s

Time = 7

smoothSolver:  Solving for Ux, Initial residual = 0.644736, Final residual = 0.0570637, No Iterations 8
smoothSolver:  Solving for Uy, Initial residual = 0.674308, Final residual = 0.0529609, No Iterations 9
smoothSolver:  Solving for Uz, Initial residual = 0.649106, Final residual = 0.0540169, No Iterations 8
smoothSolver:  Solving for T, Initial residual = 0.917704, Final residual = 0.0905978, No Iterations 17
GAMG:  Solving for p_rgh, Initial residual = 0.0574203, Final residual = 0.000567658, No Iterations 6
time step continuity errors : sum local = 10.6239, global = 0.040603, cumulative = 0.0245198
smoothSolver:  Solving for omega, Initial residual = 0.0791875, Final residual = 0.00398476, No Iterations 3
smoothSolver:  Solving for k, Initial residual = 0.157133, Final residual = 0.0118306, No Iterations 3
ExecutionTime = 14.13 s  ClockTime = 14 s

Time = 8

smoothSolver:  Solving for Ux, Initial residual = 0.667184, Final residual = 0.0645486, No Iterations 9
smoothSolver:  Solving for Uy, Initial residual = 0.661616, Final residual = 0.0539894, No Iterations 9
smoothSolver:  Solving for Uz, Initial residual = 0.650521, Final residual = 0.0564366, No Iterations 9
smoothSolver:  Solving for T, Initial residual = 0.953642, Final residual = 0.0929323, No Iterations 16
GAMG:  Solving for p_rgh, Initial residual = 0.0309055, Final residual = 0.00019304, No Iterations 9
time step continuity errors : sum local = 15.0584, global = -0.347046, cumulative = -0.322526
smoothSolver:  Solving for omega, Initial residual = 0.0846973, Final residual = 0.00379245, No Iterations 3
smoothSolver:  Solving for k, Initial residual = 0.157893, Final residual = 0.0121376, No Iterations 3
ExecutionTime = 15.46 s  ClockTime = 16 s

Time = 9

smoothSolver:  Solving for Ux, Initial residual = 0.64611, Final residual = 0.0611999, No Iterations 8
smoothSolver:  Solving for Uy, Initial residual = 0.666148, Final residual = 0.0533877, No Iterations 9
smoothSolver:  Solving for Uz, Initial residual = 0.644727, Final residual = 0.0574248, No Iterations 8
smoothSolver:  Solving for T, Initial residual = 0.983102, Final residual = 0.0966721, No Iterations 14
GAMG:  Solving for p_rgh, Initial residual = 0.0168771, Final residual = 0.000119364, No Iterations 6
time step continuity errors : sum local = 42.4183, global = 1.172, cumulative = 0.849474
smoothSolver:  Solving for omega, Initial residual = 0.0733218, Final residual = 0.00326169, No Iterations 3
smoothSolver:  Solving for k, Initial residual = 0.151158, Final residual = 0.0105171, No Iterations 3
ExecutionTime = 16.62 s  ClockTime = 17 s

Time = 10

smoothSolver:  Solving for Ux, Initial residual = 0.662614, Final residual = 0.0651587, No Iterations 9
smoothSolver:  Solving for Uy, Initial residual = 0.663731, Final residual = 0.0559363, No Iterations 9
smoothSolver:  Solving for Uz, Initial residual = 0.65202, Final residual = 0.057937, No Iterations 9
smoothSolver:  Solving for T, Initial residual = 0.9905, Final residual = 0.0981439, No Iterations 16
GAMG:  Solving for p_rgh, Initial residual = 0.0370105, Final residual = 0.000228469, No Iterations 8
time step continuity errors : sum local = 88.7189, global = -2.25757, cumulative = -1.40809
smoothSolver:  Solving for omega, Initial residual = 0.0762042, Final residual = 0.00318857, No Iterations 3
smoothSolver:  Solving for k, Initial residual = 0.13792, Final residual = 0.0107601, No Iterations 3
ExecutionTime = 17.83 s  ClockTime = 18 s

Time = 11

smoothSolver:  Solving for Ux, Initial residual = 0.65498, Final residual = 0.0551738, No Iterations 8
smoothSolver:  Solving for Uy, Initial residual = 0.660267, Final residual = 0.0587407, No Iterations 8
smoothSolver:  Solving for Uz, Initial residual = 0.641295, Final residual = 0.0532478, No Iterations 8
smoothSolver:  Solving for T, Initial residual = 0.997492, Final residual = 0.0990853, No Iterations 13
GAMG:  Solving for p_rgh, Initial residual = 0.00722183, Final residual = 5.42347e-05, No Iterations 6
time step continuity errors : sum local = 242.368, global = -0.229349, cumulative = -1.63744
smoothSolver:  Solving for omega, Initial residual = 0.0740437, Final residual = 0.00307982, No Iterations 3
smoothSolver:  Solving for k, Initial residual = 0.135619, Final residual = 0.0106293, No Iterations 3
ExecutionTime = 19 s  ClockTime = 19 s

Time = 12

smoothSolver:  Solving for Ux, Initial residual = 0.644826, Final residual = 0.0598706, No Iterations 9
smoothSolver:  Solving for Uy, Initial residual = 0.663946, Final residual = 0.0635716, No Iterations 8
smoothSolver:  Solving for Uz, Initial residual = 0.648736, Final residual = 0.0561848, No Iterations 9
smoothSolver:  Solving for T, Initial residual = 0.998948, Final residual = 0.0988121, No Iterations 14
GAMG:  Solving for p_rgh, Initial residual = 0.0286388, Final residual = 0.000178855, No Iterations 8
time step continuity errors : sum local = 548.389, global = -31.9825, cumulative = -33.62
smoothSolver:  Solving for omega, Initial residual = 0.0712527, Final residual = 0.00280665, No Iterations 3
smoothSolver:  Solving for k, Initial residual = 0.1243, Final residual = 0.00931574, No Iterations 3
ExecutionTime = 20.23 s  ClockTime = 20 s

Time = 13

smoothSolver:  Solving for Ux, Initial residual = 0.627673, Final residual = 0.0517537, No Iterations 8
smoothSolver:  Solving for Uy, Initial residual = 0.65763, Final residual = 0.0569474, No Iterations 7
smoothSolver:  Solving for Uz, Initial residual = 0.62178, Final residual = 0.0576416, No Iterations 7
smoothSolver:  Solving for T, Initial residual = 0.999831, Final residual = 0.0989487, No Iterations 12
GAMG:  Solving for p_rgh, Initial residual = 0.00501833, Final residual = 4.31688e-05, No Iterations 9
time step continuity errors : sum local = 1533.41, global = -53.0413, cumulative = -86.6612
smoothSolver:  Solving for omega, Initial residual = 0.0758223, Final residual = 0.00301495, No Iterations 3
smoothSolver:  Solving for k, Initial residual = 0.127946, Final residual = 0.0101954, No Iterations 3
ExecutionTime = 21.52 s  ClockTime = 22 s

Time = 14

smoothSolver:  Solving for Ux, Initial residual = 0.616727, Final residual = 0.0595258, No Iterations 8
smoothSolver:  Solving for Uy, Initial residual = 0.635966, Final residual = 0.0612889, No Iterations 7
smoothSolver:  Solving for Uz, Initial residual = 0.61051, Final residual = 0.053182, No Iterations 9
smoothSolver:  Solving for T, Initial residual = 0.999803, Final residual = 0.0976514, No Iterations 13
GAMG:  Solving for p_rgh, Initial residual = 0.0177011, Final residual = 0.000171051, No Iterations 11
time step continuity errors : sum local = 4957.44, global = 70.4639, cumulative = -16.1973
smoothSolver:  Solving for omega, Initial residual = 0.0719431, Final residual = 0.00277234, No Iterations 3
smoothSolver:  Solving for k, Initial residual = 0.12506, Final residual = 0.0104134, No Iterations 3
ExecutionTime = 22.83 s  ClockTime = 23 s

Time = 15

smoothSolver:  Solving for Ux, Initial residual = 0.619919, Final residual = 0.0539539, No Iterations 7
smoothSolver:  Solving for Uy, Initial residual = 0.602824, Final residual = 0.0526606, No Iterations 6
smoothSolver:  Solving for Uz, Initial residual = 0.568821, Final residual = 0.0524914, No Iterations 9
smoothSolver:  Solving for T, Initial residual = 0.999967, Final residual = 0.0947749, No Iterations 11
GAMG:  Solving for p_rgh, Initial residual = 0.00504329, Final residual = 1.41206e-05, No Iterations 7
time step continuity errors : sum local = 2960.21, global = -313.55, cumulative = -329.748
smoothSolver:  Solving for omega, Initial residual = 0.081134, Final residual = 0.00774569, No Iterations 2
smoothSolver:  Solving for k, Initial residual = 0.117667, Final residual = 0.00838003, No Iterations 3
ExecutionTime = 24.06 s  ClockTime = 24 s

Time = 16

smoothSolver:  Solving for Ux, Initial residual = 0.609025, Final residual = 0.0508586, No Iterations 6
smoothSolver:  Solving for Uy, Initial residual = 0.665046, Final residual = 0.0533446, No Iterations 5
smoothSolver:  Solving for Uz, Initial residual = 0.674164, Final residual = 0.0635504, No Iterations 6
smoothSolver:  Solving for T, Initial residual = 0.999983, Final residual = 0.0974726, No Iterations 14
GAMG:  Solving for p_rgh, Initial residual = 0.0130087, Final residual = 8.1813e-05, No Iterations 8
time step continuity errors : sum local = 17112.9, global = -210.709, cumulative = -540.456
smoothSolver:  Solving for omega, Initial residual = 0.0794039, Final residual = 0.00790345, No Iterations 2
smoothSolver:  Solving for k, Initial residual = 0.108382, Final residual = 0.00823949, No Iterations 3
ExecutionTime = 25.34 s  ClockTime = 26 s

Time = 17

smoothSolver:  Solving for Ux, Initial residual = 0.684569, Final residual = 0.0623235, No Iterations 24
smoothSolver:  Solving for Uy, Initial residual = 0.634364, Final residual = 0.0570797, No Iterations 18
smoothSolver:  Solving for Uz, Initial residual = 0.564419, Final residual = 0.052625, No Iterations 23
smoothSolver:  Solving for T, Initial residual = 0.999987, Final residual = 0.0939179, No Iterations 12
GAMG:  Solving for p_rgh, Initial residual = 0.636613, Final residual = 0.00360101, No Iterations 172
time step continuity errors : sum local = 2.34824e+07, global = 6.88367e+06, cumulative = 6.88313e+06
smoothSolver:  Solving for omega, Initial residual = 0.321817, Final residual = 0.0170197, No Iterations 3
smoothSolver:  Solving for k, Initial residual = 0.337289, Final residual = 0.0197503, No Iterations 4
ExecutionTime = 30.29 s  ClockTime = 30 s

Time = 18

smoothSolver:  Solving for Ux, Initial residual = 0.872626, Final residual = 0.074996, No Iterations 16
smoothSolver:  Solving for Uy, Initial residual = 0.868339, Final residual = 0.0855333, No Iterations 8
smoothSolver:  Solving for Uz, Initial residual = 0.694188, Final residual = 0.0594576, No Iterations 8
smoothSolver:  Solving for T, Initial residual = 1, Final residual = 0.0998039, No Iterations 37
GAMG:  Solving for p_rgh, Initial residual = 0.995866, Final residual = 0.00922717, No Iterations 7
time step continuity errors : sum local = 2.41387e+14, global = -5.10551e+13, cumulative = -5.10551e+13
smoothSolver:  Solving for omega, Initial residual = 0.00200473, Final residual = 0.000190913, No Iterations 3
smoothSolver:  Solving for k, Initial residual = 0.184189, Final residual = 0.0121194, No Iterations 4
ExecutionTime = 31.68 s  ClockTime = 32 s

Time = 19

smoothSolver:  Solving for Ux, Initial residual = 0.667457, Final residual = 0.0618811, No Iterations 26
smoothSolver:  Solving for Uy, Initial residual = 0.635211, Final residual = 0.0607003, No Iterations 25
smoothSolver:  Solving for Uz, Initial residual = 0.670513, Final residual = 0.0605883, No Iterations 22
smoothSolver:  Solving for T, Initial residual = 1, Final residual = 0.0982559, No Iterations 25
GAMG:  Solving for p_rgh, Initial residual = 0.999981, Final residual = 0.157683, No Iterations 1000
time step continuity errors : sum local = 1.49254e+21, global = -1.99296e+20, cumulative = -1.99296e+20
smoothSolver:  Solving for omega, Initial residual = 0.0955651, Final residual = 0.00559217, No Iterations 3
smoothSolver:  Solving for k, Initial residual = 0.152647, Final residual = 0.0143022, No Iterations 3
ExecutionTime = 53.72 s  ClockTime = 54 s

Time = 20

smoothSolver:  Solving for Ux, Initial residual = 0.757751, Final residual = 2.86089e+06, No Iterations 1000
smoothSolver:  Solving for Uy, Initial residual = 0.768404, Final residual = 2.00055e+06, No Iterations 1000
smoothSolver:  Solving for Uz, Initial residual = 0.685539, Final residual = 952594, No Iterations 1000
[5] [stack trace]
[5] =============
[2] [stack trace]
[2] =============
[5] #1  [2] #1  Foam::sigFpe::sigHandler(int)Foam::sigFpe::sigHandler(int) in /usr/lib/openfoam/openfoam2306/platforms/linux64GccDPInt32Opt/lib/libOpenFOAM.so
 in /usr/lib/openfoam/openfoam2306/platforms/linux64GccDPInt32Opt/lib/libOpenFOAM.so
[2] #2  ?[5] #2  ? in /lib/x86_64-linux-gnu/libc.so.6
 in /lib/x86_64-linux-gnu/libc.so.6
[2] #3  Foam::GaussSeidelSmoother::smooth(Foam::word const&, Foam::Field<double>&, Foam::lduMatrix const&, Foam::Field<double> const&, Foam::FieldField<Foam::Field, double> const&, Foam::UPtrList<Foam::lduInterfaceField const> const&, unsigned char, int)[5] #3  Foam::GaussSeidelSmoother::smooth(Foam::word const&, Foam::Field<double>&, Foam::lduMatrix const&, Foam::Field<double> const&, Foam::FieldField<Foam::Field, double> const&, Foam::UPtrList<Foam::lduInterfaceField const> const&, unsigned char, int) in /usr/lib/openfoam/openfoam2306/platforms/linux64GccDPInt32Opt/lib/libOpenFOAM.so
 in /usr/lib/openfoam/openfoam2306/platforms/linux64GccDPInt32Opt/lib/libOpenFOAM.so
[5] #4  Foam::GaussSeidelSmoother::smooth(Foam::Field<double>&, Foam::Field<double> const&, unsigned char, int) const[2] #4  Foam::GaussSeidelSmoother::smooth(Foam::Field<double>&, Foam::Field<double> const&, unsigned char, int) const in /usr/lib/openfoam/openfoam2306/platforms/linux64GccDPInt32Opt/lib/libOpenFOAM.so
 in /usr/lib/openfoam/openfoam2306/platforms/linux64GccDPInt32Opt/lib/libOpenFOAM.so
[2] #5  Foam::smoothSolver::solve(Foam::Field<double>&, Foam::Field<double> const&, unsigned char) const[5] #5  Foam::smoothSolver::solve(Foam::Field<double>&, Foam::Field<double> const&, unsigned char) const in /usr/lib/openfoam/openfoam2306/platforms/linux64GccDPInt32Opt/lib/libOpenFOAM.so
 in /usr/lib/openfoam/openfoam2306/platforms/linux64GccDPInt32Opt/lib/libOpenFOAM.so
[5] #6  Foam::fvMatrix<double>::solveSegregated(Foam::dictionary const&)[2] #6  Foam::fvMatrix<double>::solveSegregated(Foam::dictionary const&) in /usr/lib/openfoam/openfoam2306/platforms/linux64GccDPInt32Opt/lib/libfiniteVolume.so
 in /usr/lib/openfoam/openfoam2306/platforms/linux64GccDPInt32Opt/lib/libfiniteVolume.so
[5] #7  ?[2] #7  ? in /usr/lib/openfoam/openfoam2306/platforms/linux64GccDPInt32Opt/lib/libfiniteVolume.so
[2] #8  Foam::fvMesh::solve(Foam::fvMatrix<double>&, Foam::dictionary const&) const in /usr/lib/openfoam/openfoam2306/platforms/linux64GccDPInt32Opt/lib/libfiniteVolume.so
[5] #8  Foam::fvMesh::solve(Foam::fvMatrix<double>&, Foam::dictionary const&) const in /usr/lib/openfoam/openfoam2306/platforms/linux64GccDPInt32Opt/lib/libfiniteVolume.so
[2] #9   in /usr/lib/openfoam/openfoam2306/platforms/linux64GccDPInt32Opt/lib/libfiniteVolume.so
[5] #9  ?? in /usr/lib/openfoam/openfoam2306/platforms/linux64GccDPInt32Opt/bin/buoyantBoussinesqSimpleFoam
[2] #10   in /usr/lib/openfoam/openfoam2306/platforms/linux64GccDPInt32Opt/bin/buoyantBoussinesqSimpleFoam
[5] #10  ?? in /usr/lib/openfoam/openfoam2306/platforms/linux64GccDPInt32Opt/bin/buoyantBoussinesqSimpleFoam
[2] #11  ? in /usr/lib/openfoam/openfoam2306/platforms/linux64GccDPInt32Opt/bin/buoyantBoussinesqSimpleFoam
[5] #11  ? in /lib/x86_64-linux-gnu/libc.so.6
[2] #12  __libc_start_main in /lib/x86_64-linux-gnu/libc.so.6
[5] #12  __libc_start_main in /lib/x86_64-linux-gnu/libc.so.6
[2] #13   in /lib/x86_64-linux-gnu/libc.so.6
[5] #13  ?? in /usr/lib/openfoam/openfoam2306/platforms/linux64GccDPInt32Opt/bin/buoyantBoussinesqSimpleFoam
[2] =============
[TheMachine:352618] *** Process received signal ***
[TheMachine:352618] Signal: Floating point exception (8)
[TheMachine:352618] Signal code:  (-6)
[TheMachine:352618] Failing at address: 0x3e80005616a
[TheMachine:352618] [ 0] /lib/x86_64-linux-gnu/libc.so.6(+0x42520)[0x7f5ff9ca6520]
[TheMachine:352618] [ 1] /lib/x86_64-linux-gnu/libc.so.6(pthread_kill+0x12c)[0x7f5ff9cfa9fc]
[TheMachine:352618] [ 2] /lib/x86_64-linux-gnu/libc.so.6(raise+0x16)[0x7f5ff9ca6476]
[TheMachine:352618] [ 3] /lib/x86_64-linux-gnu/libc.so.6(+0x42520)[0x7f5ff9ca6520]
[TheMachine:352618] [ 4] /usr/lib/openfoam/openfoam2306/platforms/linux64GccDPInt32Opt/lib/libOpenFOAM.so(_ZN4Foam19GaussSeidelSmoother6smoothERKNS_4wordERNS_5FieldIdEERKNS_9lduMatrixERKS5_RKNS_10FieldFieldIS4_dEERKNS_8UPtrListIKNS_17lduInterfaceFieldEEEhi+0x20d)[0x7f5ffa61c5bd]
[TheMachine:352618] [ 5]  in /usr/lib/openfoam/openfoam2306/platforms/linux64GccDPInt32Opt/bin/buoyantBoussinesqSimpleFoam
[5] =============
[TheMachine:352621] *** Process received signal ***
[TheMachine:352621] Signal: Floating point exception (8)
[TheMachine:352621] Signal code:  (-6)
[TheMachine:352621] Failing at address: 0x3e80005616d
[TheMachine:352621] [ 0] /lib/x86_64-linux-gnu/libc.so.6(+0x42520)[0x7fbb9da81520]
[TheMachine:352621] [ 1] /usr/lib/openfoam/openfoam2306/platforms/linux64GccDPInt32Opt/lib/libOpenFOAM.so(_ZNK4Foam19GaussSeidelSmoother6smoothERNS_5FieldIdEERKS2_hi+0x4b)[0x7f5ffa61c6db]
[TheMachine:352618] [ 6] /lib/x86_64-linux-gnu/libc.so.6(pthread_kill+0x12c)[0x7fbb9dad59fc]
[TheMachine:352621] [ 2] /lib/x86_64-linux-gnu/libc.so.6(raise+0x16)[0x7fbb9da81476]
[TheMachine:352621] [ 3] /lib/x86_64-linux-gnu/libc.so.6(+0x42520)[0x7fbb9da81520]
[TheMachine:352621] [ 4] /usr/lib/openfoam/openfoam2306/platforms/linux64GccDPInt32Opt/lib/libOpenFOAM.so(_ZNK4Foam12smoothSolver5solveERNS_5FieldIdEERKS2_h+0x4b1)[0x7f5ffa618ef1]
[TheMachine:352618] [ 7] /usr/lib/openfoam/openfoam2306/platforms/linux64GccDPInt32Opt/lib/libOpenFOAM.so(_ZN4Foam19GaussSeidelSmoother6smoothERKNS_4wordERNS_5FieldIdEERKNS_9lduMatrixERKS5_RKNS_10FieldFieldIS4_dEERKNS_8UPtrListIKNS_17lduInterfaceFieldEEEhi+0x20d)[0x7fbb9e3f75bd]
[TheMachine:352621] [ 5] /usr/lib/openfoam/openfoam2306/platforms/linux64GccDPInt32Opt/lib/libfiniteVolume.so(_ZN4Foam8fvMatrixIdE15solveSegregatedERKNS_10dictionaryE+0x478)[0x7f5ffc3b06e8]
[TheMachine:352618] [ 8] /usr/lib/openfoam/openfoam2306/platforms/linux64GccDPInt32Opt/lib/libOpenFOAM.so(_ZNK4Foam19GaussSeidelSmoother6smoothERNS_5FieldIdEERKS2_hi+0x4b)[0x7fbb9e3f76db]
[TheMachine:352621] [ 6] /usr/lib/openfoam/openfoam2306/platforms/linux64GccDPInt32Opt/lib/libfiniteVolume.so(+0x4a92bf)[0x7f5ffbf8d2bf]
[TheMachine:352618] [ 9] /usr/lib/openfoam/openfoam2306/platforms/linux64GccDPInt32Opt/lib/libfiniteVolume.so(_ZNK4Foam6fvMesh5solveERNS_8fvMatrixIdEERKNS_10dictionaryE+0x28)[0x7f5ffbf7d3f8]
[TheMachine:352618] [10] buoyantBoussinesqSimpleFoam(+0x342f7)[0x5643109bd2f7]
[TheMachine:352618] [11] buoyantBoussinesqSimpleFoam(+0x20bc0)[0x5643109a9bc0]
[TheMachine:352618] [12] /usr/lib/openfoam/openfoam2306/platforms/linux64GccDPInt32Opt/lib/libOpenFOAM.so(_ZNK4Foam12smoothSolver5solveERNS_5FieldIdEERKS2_h+0x4b1)[0x7fbb9e3f3ef1]
[TheMachine:352621] [ 7] /lib/x86_64-linux-gnu/libc.so.6(+0x29d90)[0x7f5ff9c8dd90]
[TheMachine:352618] [13] /lib/x86_64-linux-gnu/libc.so.6(__libc_start_main+0x80)[0x7f5ff9c8de40]
[TheMachine:352618] [14] buoyantBoussinesqSimpleFoam(+0x28f85)[0x5643109b1f85]
[TheMachine:352618] *** End of error message ***
/usr/lib/openfoam/openfoam2306/platforms/linux64GccDPInt32Opt/lib/libfiniteVolume.so(_ZN4Foam8fvMatrixIdE15solveSegregatedERKNS_10dictionaryE+0x478)[0x7fbba018b6e8]
[TheMachine:352621] [ 8] /usr/lib/openfoam/openfoam2306/platforms/linux64GccDPInt32Opt/lib/libfiniteVolume.so(+0x4a92bf)[0x7fbb9fd682bf]
[TheMachine:352621] [ 9] /usr/lib/openfoam/openfoam2306/platforms/linux64GccDPInt32Opt/lib/libfiniteVolume.so(_ZNK4Foam6fvMesh5solveERNS_8fvMatrixIdEERKNS_10dictionaryE+0x28)[0x7fbb9fd583f8]
[TheMachine:352621] [10] buoyantBoussinesqSimpleFoam(+0x342f7)[0x55da97f222f7]
[TheMachine:352621] [11] buoyantBoussinesqSimpleFoam(+0x20bc0)[0x55da97f0ebc0]
[TheMachine:352621] [12] /lib/x86_64-linux-gnu/libc.so.6(+0x29d90)[0x7fbb9da68d90]
[TheMachine:352621] [13] /lib/x86_64-linux-gnu/libc.so.6(__libc_start_main+0x80)[0x7fbb9da68e40]
[TheMachine:352621] [14] buoyantBoussinesqSimpleFoam(+0x28f85)[0x55da97f16f85]
[TheMachine:352621] *** End of error message ***
--------------------------------------------------------------------------
Primary job  terminated normally, but 1 process returned
a non-zero exit code. Per user-direction, the job has been aborted.
--------------------------------------------------------------------------
--------------------------------------------------------------------------
mpirun noticed that process rank 2 with PID 0 on node TheMachine exited on signal 8 (Floating point exception).
--------------------------------------------------------------------------
