/*---------------------------------------------------------------------------*\
| =========                 |                                                 |
| \\      /  F ield         | OpenFOAM: The Open Source CFD Toolbox           |
|  \\    /   O peration     | Version:  2306                                  |
|   \\  /    A nd           | Website:  www.openfoam.com                      |
|    \\/     M anipulation  |                                                 |
\*---------------------------------------------------------------------------*/
Build  : _fbf00d6b-20230626 OPENFOAM=2306 version=2306
Arch   : "LSB;label=32;scalar=64"
Exec   : mySimpleFoam -parallel -decomposeParDict system/decomposeParDict.6
Date   : Mar 06 2024
Time   : 21:43:35
Host   : LegionSlim
PID    : 8917
I/O    : uncollated
Case   : /home/adrian/run/TFG/TFG_FILES/aeroDynamicSimulations/motorBike
nProcs : 6
Hosts  :
(
    (LegionSlim 6)
)
Pstream initialized with:
    floatTransfer      : false
    nProcsSimpleSum    : 0
    nonBlockingExchange: 0 (tuning: 0)
    exchange algorithm : -1
    commsType          : nonBlocking
    polling iterations : 0
trapFpe: Floating point exception trapping enabled (FOAM_SIGFPE).
fileModificationChecking : Monitoring run-time modified files using timeStampMaster (fileModificationSkew 5, maxFileModificationPolls 20)
allowSystemOperations : Allowing user-supplied system call operations

// * * * * * * * * * * * * * * * * * * * * * * * * * * * * * * * * * * * * * //
Create time

Create mesh for time = 0


SIMPLE: no convergence criteria found. Calculations will run for 500 steps.

Reading field p

Reading field U

Reading field explicitSourceU

Reading/calculating face flux field phi

Selecting incompressible transport model Newtonian
Selecting turbulence model type RAS
Selecting RAS turbulence model kOmegaSST
Selecting patchDistMethod meshWave
RAS
{
    RASModel        kOmegaSST;
    turbulence      on;
    printCoeffs     on;
    alphaK1         0.85;
    alphaK2         1;
    alphaOmega1     0.5;
    alphaOmega2     0.856;
    gamma1          0.555556;
    gamma2          0.44;
    beta1           0.075;
    beta2           0.0828;
    betaStar        0.09;
    a1              0.31;
    b1              1;
    c1              10;
    F3              false;
    decayControl    false;
    kInf            0;
    omegaInf        0;
}

No MRF models present

Creating finite volume options from "system/fvOptions"

No finite volume options present

Starting time loop

streamLine streamLines:
    Employing velocity field U
    automatic track length specified through number of sub cycles : 5

nearWallFields near: Sampling 1 fields
wallBoundedStreamLine wallBoundedStreamLines:
    Employing velocity field UNear
Sampled surface:
    yNormal -> vtk
        sampledCuttingPlane: yNormal : plane:(0 1 0) (0 0 0) offsets:(0)

forceCoeffs forceCoeffs1:
    rho: rhoInf
    Freestream density (rhoInf) set to 1
    Not including porosity effects
    magUInf: 20
    lRef   : 1.42
    Aref   : 0.75
    rhoInf : 1
    Selecting all coefficients
    - Drag force: Cd
    - Drag force front: Cd(f)
    - Drag force rear: Cd(r)
    - Lift force: Cl
    - Lift force front: Cl(f)
    - Lift force rear: Cl(r)
    - Pitch moment: CmPitch
    - Roll moment: CmRoll
    - Yaw moment: CmYaw
    - Side force: Cs
    - Side force front: Cs(f)
    - Side force rear: Cs(r)


Time = 1

smoothSolver:  Solving for Ux, Initial residual = 0.827081, Final residual = 0.0656021, No Iterations 6
smoothSolver:  Solving for Uy, Initial residual = 0.585359, Final residual = 0.0445544, No Iterations 7
smoothSolver:  Solving for Uz, Initial residual = 0.398658, Final residual = 0.037877, No Iterations 5
GAMG:  Solving for p, Initial residual = 1, Final residual = 0.00956795, No Iterations 6
time step continuity errors : sum local = 0.0180491, global = 0.00298265, cumulative = 0.00298265
smoothSolver:  Solving for omega, Initial residual = 0.00292637, Final residual = 0.00020869, No Iterations 3
bounding omega, min: -7.95334 max: 91527.5 average: 233.124
smoothSolver:  Solving for k, Initial residual = 1, Final residual = 0.0581207, No Iterations 3
ExecutionTime = 1.07 s  ClockTime = 1 s

forceCoeffs forceCoeffs1 write:
    Coefficient	Total	Pressure	Viscous	Internal
    Cd:	1.2477	1.22443	0.0232724	0
    Cd(f):	0.627357	0.615678	0.0116795	0
    Cd(r):	0.620346	0.608753	0.0115928	0
    Cl:	0.0467468	0.0458786	0.000868195	0
    Cl(f):	0.535674	0.525951	0.0097231	0
    Cl(r):	-0.488927	-0.480072	-0.00885491	0
    CmPitch:	0.512301	0.503012	0.009289	0
    CmRoll:	0.00350583	0.00346247	4.33594e-05	0
    CmYaw:	-0.000659151	-0.000579556	-7.95942e-05	0
    Cs:	-0.021229	-0.0211676	-6.13914e-05	0
    Cs(f):	-0.0112737	-0.0111634	-0.00011029	0
    Cs(r):	-0.00995536	-0.0100043	4.88985e-05	0

    writing force and moment coefficient files.

Time = 2

smoothSolver:  Solving for Ux, Initial residual = 0.466999, Final residual = 0.0342041, No Iterations 6
smoothSolver:  Solving for Uy, Initial residual = 0.691057, Final residual = 0.0513336, No Iterations 4
smoothSolver:  Solving for Uz, Initial residual = 0.603058, Final residual = 0.0424596, No Iterations 4
GAMG:  Solving for p, Initial residual = 0.0168044, Final residual = 0.000115756, No Iterations 6
time step continuity errors : sum local = 0.0106247, global = 0.00248042, cumulative = 0.00546307
smoothSolver:  Solving for omega, Initial residual = 0.00269577, Final residual = 0.000229884, No Iterations 3
bounding omega, min: -20.9036 max: 91175.5 average: 292.871
smoothSolver:  Solving for k, Initial residual = 0.354189, Final residual = 0.0332921, No Iterations 2
ExecutionTime = 1.48 s  ClockTime = 1 s

forceCoeffs forceCoeffs1 write:
    Coefficient	Total	Pressure	Viscous	Internal
    Cd:	1.3706	1.35067	0.0199307	0
    Cd(f):	0.69018	0.680189	0.00999116	0
    Cd(r):	0.680416	0.670477	0.00993952	0
    Cl:	0.0551122	0.0545196	0.000592544	0
    Cl(f):	0.582115	0.574027	0.00808808	0
    Cl(r):	-0.527003	-0.519507	-0.00749554	0
    CmPitch:	0.554559	0.546767	0.00779181	0
    CmRoll:	0.00488202	0.0048562	2.58178e-05	0
    CmYaw:	-0.000479587	-0.000403154	-7.6433e-05	0
    Cs:	-0.0257611	-0.0257677	6.63556e-06	0
    Cs(f):	-0.0133601	-0.013287	-7.31153e-05	0
    Cs(r):	-0.0124009	-0.0124807	7.97508e-05	0

    writing force and moment coefficient files.

Time = 3

smoothSolver:  Solving for Ux, Initial residual = 0.361835, Final residual = 0.0298435, No Iterations 5
smoothSolver:  Solving for Uy, Initial residual = 0.529248, Final residual = 0.0488624, No Iterations 4
smoothSolver:  Solving for Uz, Initial residual = 0.422745, Final residual = 0.0407002, No Iterations 4
GAMG:  Solving for p, Initial residual = 0.0105418, Final residual = 6.28235e-05, No Iterations 4
time step continuity errors : sum local = 0.00748639, global = 0.000736578, cumulative = 0.00619965
smoothSolver:  Solving for omega, Initial residual = 0.00229224, Final residual = 0.000212127, No Iterations 3
smoothSolver:  Solving for k, Initial residual = 0.169654, Final residual = 0.0166057, No Iterations 2
ExecutionTime = 1.84 s  ClockTime = 2 s

forceCoeffs forceCoeffs1 write:
    Coefficient	Total	Pressure	Viscous	Internal
    Cd:	1.1914	1.17421	0.0171894	0
    Cd(f):	0.598705	0.590068	0.00863734	0
    Cd(r):	0.592697	0.584145	0.00855207	0
    Cl:	0.069783	0.0693196	0.000463374	0
    Cl(f):	0.507859	0.500961	0.00689832	0
    Cl(r):	-0.438076	-0.431641	-0.00643495	0
    CmPitch:	0.472968	0.466301	0.00666663	0
    CmRoll:	0.00300421	0.00296157	4.26393e-05	0
    CmYaw:	0.00142715	0.00150075	-7.35946e-05	0
    Cs:	-0.0197512	-0.0197664	1.52153e-05	0
    Cs(f):	-0.00844843	-0.00838245	-6.5987e-05	0
    Cs(r):	-0.0113027	-0.0113839	8.12023e-05	0

    writing force and moment coefficient files.

Time = 4

smoothSolver:  Solving for Ux, Initial residual = 0.318503, Final residual = 0.0244049, No Iterations 5
smoothSolver:  Solving for Uy, Initial residual = 0.394964, Final residual = 0.0280405, No Iterations 5
smoothSolver:  Solving for Uz, Initial residual = 0.371673, Final residual = 0.0303313, No Iterations 4
GAMG:  Solving for p, Initial residual = 0.00868611, Final residual = 5.4153e-05, No Iterations 4
time step continuity errors : sum local = 0.00627191, global = -0.000201291, cumulative = 0.00599836
smoothSolver:  Solving for omega, Initial residual = 0.00210738, Final residual = 0.000197988, No Iterations 3
smoothSolver:  Solving for k, Initial residual = 0.106244, Final residual = 0.00560205, No Iterations 3
ExecutionTime = 2.21 s  ClockTime = 2 s

forceCoeffs forceCoeffs1 write:
    Coefficient	Total	Pressure	Viscous	Internal
    Cd:	0.975288	0.959838	0.0154505	0
    Cd(f):	0.48879	0.480997	0.00779233	0
    Cd(r):	0.486498	0.47884	0.00765819	0
    Cl:	0.0794664	0.0791919	0.000274493	0
    Cl(f):	0.418726	0.41256	0.00616574	0
    Cl(r):	-0.33926	-0.333369	-0.00589124	0
    CmPitch:	0.378993	0.372964	0.00602849	0
    CmRoll:	0.00114574	0.00107867	6.70696e-05	0
    CmYaw:	0.00262175	0.00269035	-6.86006e-05	0
    Cs:	-0.0138011	-0.0138003	-7.62634e-07	0
    Cs(f):	-0.0042788	-0.00420981	-6.89819e-05	0
    Cs(r):	-0.0095223	-0.00959052	6.82193e-05	0

    writing force and moment coefficient files.

Time = 5

smoothSolver:  Solving for Ux, Initial residual = 0.262715, Final residual = 0.0206234, No Iterations 5
smoothSolver:  Solving for Uy, Initial residual = 0.381424, Final residual = 0.0331091, No Iterations 5
smoothSolver:  Solving for Uz, Initial residual = 0.426864, Final residual = 0.0387415, No Iterations 4
GAMG:  Solving for p, Initial residual = 0.00792913, Final residual = 4.32278e-05, No Iterations 4
time step continuity errors : sum local = 0.00498571, global = -0.00083245, cumulative = 0.00516591
smoothSolver:  Solving for omega, Initial residual = 0.00183688, Final residual = 0.000171514, No Iterations 3
smoothSolver:  Solving for k, Initial residual = 0.0632613, Final residual = 0.00417725, No Iterations 3
ExecutionTime = 2.58 s  ClockTime = 2 s

forceCoeffs forceCoeffs1 write:
    Coefficient	Total	Pressure	Viscous	Internal
    Cd:	0.779389	0.764926	0.0144635	0
    Cd(f):	0.388541	0.381218	0.00732283	0
    Cd(r):	0.390848	0.383708	0.00714072	0
    Cl:	0.0906668	0.0905106	0.00015624	0
    Cl(f):	0.340856	0.335067	0.005789	0
    Cl(r):	-0.25019	-0.244557	-0.00563276	0
    CmPitch:	0.295523	0.289812	0.00571088	0
    CmRoll:	-0.00115355	-0.00124461	9.10558e-05	0
    CmYaw:	0.00369958	0.0037672	-6.7622e-05	0
    Cs:	-0.0084978	-0.0084718	-2.59992e-05	0
    Cs(f):	-0.000549321	-0.000468699	-8.06216e-05	0
    Cs(r):	-0.00794848	-0.0080031	5.46224e-05	0

    writing force and moment coefficient files.

Time = 6

smoothSolver:  Solving for Ux, Initial residual = 0.224727, Final residual = 0.0169831, No Iterations 5
smoothSolver:  Solving for Uy, Initial residual = 0.438234, Final residual = 0.0324937, No Iterations 6
smoothSolver:  Solving for Uz, Initial residual = 0.442124, Final residual = 0.0368416, No Iterations 5
GAMG:  Solving for p, Initial residual = 0.00737645, Final residual = 3.60542e-05, No Iterations 4
time step continuity errors : sum local = 0.00421977, global = -0.000240555, cumulative = 0.00492535
smoothSolver:  Solving for omega, Initial residual = 0.00161574, Final residual = 0.000145413, No Iterations 3
smoothSolver:  Solving for k, Initial residual = 0.0397947, Final residual = 0.00294389, No Iterations 3
ExecutionTime = 2.95 s  ClockTime = 3 s

forceCoeffs forceCoeffs1 write:
    Coefficient	Total	Pressure	Viscous	Internal
    Cd:	0.626172	0.612222	0.0139501	0
    Cd(f):	0.310904	0.303818	0.00708568	0
    Cd(r):	0.315268	0.308404	0.00686437	0
    Cl:	0.105646	0.105586	6.02764e-05	0
    Cl(f):	0.28476	0.279103	0.00565654	0
    Cl(r):	-0.179114	-0.173518	-0.00559626	0
    CmPitch:	0.231937	0.226311	0.0056264	0
    CmRoll:	-0.00218225	-0.00229291	0.000110656	0
    CmYaw:	0.0033971	0.00346293	-6.58298e-05	0
    Cs:	-0.00637327	-0.00631725	-5.60233e-05	0
    Cs(f):	0.00021046	0.000304301	-9.38415e-05	0
    Cs(r):	-0.00658373	-0.00662155	3.78181e-05	0

    writing force and moment coefficient files.

Time = 7

smoothSolver:  Solving for Ux, Initial residual = 0.196294, Final residual = 0.0162718, No Iterations 5
smoothSolver:  Solving for Uy, Initial residual = 0.443828, Final residual = 0.0359516, No Iterations 6
smoothSolver:  Solving for Uz, Initial residual = 0.394509, Final residual = 0.0391835, No Iterations 5
GAMG:  Solving for p, Initial residual = 0.00684899, Final residual = 3.18929e-05, No Iterations 4
time step continuity errors : sum local = 0.00367206, global = -0.000272171, cumulative = 0.00465318
smoothSolver:  Solving for omega, Initial residual = 0.00138016, Final residual = 0.000122965, No Iterations 3
smoothSolver:  Solving for k, Initial residual = 0.0287528, Final residual = 0.00216277, No Iterations 3
ExecutionTime = 3.32 s  ClockTime = 3 s

forceCoeffs forceCoeffs1 write:
    Coefficient	Total	Pressure	Viscous	Internal
    Cd:	0.505735	0.49206	0.0136742	0
    Cd(f):	0.25155	0.244605	0.00694489	0
    Cd(r):	0.254185	0.247456	0.00672929	0
    Cl:	0.122433	0.122433	-3.80077e-07	0
    Cl(f):	0.242759	0.237092	0.00566754	0
    Cl(r):	-0.120327	-0.114659	-0.00566793	0
    CmPitch:	0.181543	0.175875	0.00566774	0
    CmRoll:	-0.0013176	-0.0014254	0.000107801	0
    CmYaw:	0.0021304	0.00219707	-6.667e-05	0
    Cs:	-0.0083585	-0.00830417	-5.43243e-05	0
    Cs(f):	-0.00204885	-0.00195502	-9.38322e-05	0
    Cs(r):	-0.00630965	-0.00634916	3.95078e-05	0

    writing force and moment coefficient files.

Time = 8

smoothSolver:  Solving for Ux, Initial residual = 0.173962, Final residual = 0.0149347, No Iterations 5
smoothSolver:  Solving for Uy, Initial residual = 0.407903, Final residual = 0.0336256, No Iterations 6
smoothSolver:  Solving for Uz, Initial residual = 0.3834, Final residual = 0.025254, No Iterations 6
GAMG:  Solving for p, Initial residual = 0.00614864, Final residual = 3.55545e-05, No Iterations 4
time step continuity errors : sum local = 0.00407891, global = -0.00039186, cumulative = 0.00426132
smoothSolver:  Solving for omega, Initial residual = 0.00122349, Final residual = 0.000105944, No Iterations 3
smoothSolver:  Solving for k, Initial residual = 0.0213459, Final residual = 0.00164664, No Iterations 3
ExecutionTime = 3.7 s  ClockTime = 4 s

forceCoeffs forceCoeffs1 write:
    Coefficient	Total	Pressure	Viscous	Internal
    Cd:	0.418164	0.404626	0.0135377	0
    Cd(f):	0.209817	0.202925	0.00689216	0
    Cd(r):	0.208347	0.201701	0.0066455	0
    Cl:	0.132176	0.13226	-8.48799e-05	0
    Cl(f):	0.211242	0.205557	0.00568481	0
    Cl(r):	-0.0790661	-0.0732964	-0.00576969	0
    CmPitch:	0.145154	0.139427	0.00572725	0
    CmRoll:	0.000734909	0.000611581	0.000123327	0
    CmYaw:	-4.70437e-05	2.1009e-05	-6.80527e-05	0
    Cs:	-0.0132454	-0.0131434	-0.00010202	0
    Cs(f):	-0.00666974	-0.00655068	-0.000119063	0
    Cs(r):	-0.00657565	-0.00659269	1.70427e-05	0

    writing force and moment coefficient files.

Time = 9

smoothSolver:  Solving for Ux, Initial residual = 0.153294, Final residual = 0.0134686, No Iterations 5
smoothSolver:  Solving for Uy, Initial residual = 0.360257, Final residual = 0.0303563, No Iterations 6
smoothSolver:  Solving for Uz, Initial residual = 0.382749, Final residual = 0.0378163, No Iterations 5
GAMG:  Solving for p, Initial residual = 0.00558453, Final residual = 3.07688e-05, No Iterations 4
time step continuity errors : sum local = 0.00356103, global = -0.000370113, cumulative = 0.00389121
smoothSolver:  Solving for omega, Initial residual = 0.00108512, Final residual = 9.21276e-05, No Iterations 3
smoothSolver:  Solving for k, Initial residual = 0.0172913, Final residual = 0.00127633, No Iterations 3
ExecutionTime = 4.08 s  ClockTime = 4 s

forceCoeffs forceCoeffs1 write:
    Coefficient	Total	Pressure	Viscous	Internal
    Cd:	0.356922	0.34349	0.0134319	0
    Cd(f):	0.182092	0.175241	0.00685109	0
    Cd(r):	0.17483	0.168249	0.00658076	0
    Cl:	0.138972	0.139094	-0.000121645	0
    Cl(f):	0.187661	0.181966	0.00569416	0
    Cl(r):	-0.0486886	-0.0428728	-0.0058158	0
    CmPitch:	0.118175	0.11242	0.00575498	0
    CmRoll:	0.00363085	0.00349568	0.000135164	0
    CmYaw:	-0.00293814	-0.00286026	-7.7876e-05	0
    Cs:	-0.0203519	-0.0202147	-0.00013719	0
    Cs(f):	-0.0131141	-0.0129676	-0.000146471	0
    Cs(r):	-0.0072378	-0.00724708	9.28107e-06	0

    writing force and moment coefficient files.

Time = 10

smoothSolver:  Solving for Ux, Initial residual = 0.13644, Final residual = 0.0121905, No Iterations 5
smoothSolver:  Solving for Uy, Initial residual = 0.319767, Final residual = 0.0273395, No Iterations 6
smoothSolver:  Solving for Uz, Initial residual = 0.368376, Final residual = 0.0363074, No Iterations 5
GAMG:  Solving for p, Initial residual = 0.00504079, Final residual = 2.40656e-05, No Iterations 4
time step continuity errors : sum local = 0.00282374, global = -0.000126835, cumulative = 0.00376437
smoothSolver:  Solving for omega, Initial residual = 0.000970747, Final residual = 8.18615e-05, No Iterations 3
smoothSolver:  Solving for k, Initial residual = 0.0141703, Final residual = 0.0010538, No Iterations 3
ExecutionTime = 4.45 s  ClockTime = 4 s

forceCoeffs forceCoeffs1 write:
    Coefficient	Total	Pressure	Viscous	Internal
    Cd:	0.313186	0.299779	0.0134069	0
    Cd(f):	0.162724	0.155865	0.00685885	0
    Cd(r):	0.150462	0.143914	0.00654809	0
    Cl:	0.140705	0.140884	-0.000179125	0
    Cl(f):	0.168381	0.162675	0.00570602	0
    Cl(r):	-0.0276758	-0.0217907	-0.00588515	0
    CmPitch:	0.0980282	0.0922326	0.00579558	0
    CmRoll:	0.00613076	0.00597538	0.00015538	0
    CmYaw:	-0.00549331	-0.00539099	-0.000102322	0
    Cs:	-0.0257188	-0.0255218	-0.000197061	0
    Cs(f):	-0.0183527	-0.0181519	-0.000200852	0
    Cs(r):	-0.0073661	-0.00736989	3.79093e-06	0

    writing force and moment coefficient files.

Time = 11

smoothSolver:  Solving for Ux, Initial residual = 0.120677, Final residual = 0.010853, No Iterations 5
smoothSolver:  Solving for Uy, Initial residual = 0.289762, Final residual = 0.0252674, No Iterations 6
smoothSolver:  Solving for Uz, Initial residual = 0.341914, Final residual = 0.0225757, No Iterations 6
GAMG:  Solving for p, Initial residual = 0.00452, Final residual = 4.27234e-05, No Iterations 3
time step continuity errors : sum local = 0.00508873, global = 0.000764712, cumulative = 0.00452909
smoothSolver:  Solving for omega, Initial residual = 0.000883428, Final residual = 7.37367e-05, No Iterations 3
smoothSolver:  Solving for k, Initial residual = 0.0117036, Final residual = 0.000914162, No Iterations 3
ExecutionTime = 4.82 s  ClockTime = 5 s

forceCoeffs forceCoeffs1 write:
    Coefficient	Total	Pressure	Viscous	Internal
    Cd:	0.281772	0.268379	0.0133938	0
    Cd(f):	0.14879	0.141906	0.006884	0
    Cd(r):	0.132983	0.126473	0.00650979	0
    Cl:	0.140401	0.140626	-0.000225856	0
    Cl(f):	0.153281	0.147567	0.00571389	0
    Cl(r):	-0.01288	-0.00694029	-0.00593975	0
    CmPitch:	0.0830803	0.0772535	0.00582682	0
    CmRoll:	0.00790362	0.00771652	0.000187106	0
    CmYaw:	-0.0073719	-0.00724077	-0.000131128	0
    Cs:	-0.0288354	-0.0285821	-0.000253309	0
    Cs(f):	-0.0217896	-0.0215318	-0.000257783	0
    Cs(r):	-0.0070458	-0.00705027	4.47385e-06	0

    writing force and moment coefficient files.

Time = 12

smoothSolver:  Solving for Ux, Initial residual = 0.106431, Final residual = 0.00949766, No Iterations 5
smoothSolver:  Solving for Uy, Initial residual = 0.26566, Final residual = 0.0234232, No Iterations 6
smoothSolver:  Solving for Uz, Initial residual = 0.311864, Final residual = 0.0216885, No Iterations 6
GAMG:  Solving for p, Initial residual = 0.0040832, Final residual = 3.44572e-05, No Iterations 3
time step continuity errors : sum local = 0.00415786, global = -8.03555e-05, cumulative = 0.00444873
smoothSolver:  Solving for omega, Initial residual = 0.000820635, Final residual = 6.71329e-05, No Iterations 3
smoothSolver:  Solving for k, Initial residual = 0.00998982, Final residual = 0.000800947, No Iterations 3
ExecutionTime = 5.17 s  ClockTime = 5 s

forceCoeffs forceCoeffs1 write:
    Coefficient	Total	Pressure	Viscous	Internal
    Cd:	0.260567	0.247087	0.0134798	0
    Cd(f):	0.139087	0.132128	0.00695868	0
    Cd(r):	0.12148	0.114959	0.00652109	0
    Cl:	0.141515	0.14173	-0.000214812	0
    Cl(f):	0.143345	0.137572	0.00577319	0
    Cl(r):	-0.00182941	0.00415859	-0.005988	0
    CmPitch:	0.0725871	0.0667065	0.00588059	0
    CmRoll:	0.00880344	0.00858464	0.000218797	0
    CmYaw:	-0.00825157	-0.00809155	-0.000160013	0
    Cs:	-0.0298283	-0.0295334	-0.000294918	0
    Cs(f):	-0.0231657	-0.0228582	-0.000307472	0
    Cs(r):	-0.00666257	-0.00667512	1.25541e-05	0

    writing force and moment coefficient files.

Time = 13

smoothSolver:  Solving for Ux, Initial residual = 0.0939894, Final residual = 0.00838256, No Iterations 5
smoothSolver:  Solving for Uy, Initial residual = 0.251683, Final residual = 0.0222947, No Iterations 6
smoothSolver:  Solving for Uz, Initial residual = 0.286489, Final residual = 0.0205174, No Iterations 6
GAMG:  Solving for p, Initial residual = 0.00371712, Final residual = 2.88927e-05, No Iterations 3
time step continuity errors : sum local = 0.00351935, global = 4.29847e-05, cumulative = 0.00449172
smoothSolver:  Solving for omega, Initial residual = 0.000761797, Final residual = 6.13298e-05, No Iterations 3
smoothSolver:  Solving for k, Initial residual = 0.00871796, Final residual = 0.000722716, No Iterations 3
ExecutionTime = 5.54 s  ClockTime = 5 s

forceCoeffs forceCoeffs1 write:
    Coefficient	Total	Pressure	Viscous	Internal
    Cd:	0.247582	0.233982	0.0135999	0
    Cd(f):	0.132412	0.125364	0.007048	0
    Cd(r):	0.11517	0.108618	0.0065519	0
    Cl:	0.143922	0.144127	-0.000205087	0
    Cl(f):	0.138375	0.132545	0.00583001	0
    Cl(r):	0.00554655	0.0115816	-0.00603509	0
    CmPitch:	0.0664143	0.0604818	0.00593255	0
    CmRoll:	0.00862075	0.0083727	0.000248048	0
    CmYaw:	-0.00810897	-0.00793801	-0.000170964	0
    Cs:	-0.0282753	-0.0279534	-0.000321972	0
    Cs(f):	-0.0222466	-0.0219147	-0.00033195	0
    Cs(r):	-0.00602869	-0.00603867	9.97741e-06	0

    writing force and moment coefficient files.

Time = 14

smoothSolver:  Solving for Ux, Initial residual = 0.0836336, Final residual = 0.00743568, No Iterations 5
smoothSolver:  Solving for Uy, Initial residual = 0.239652, Final residual = 0.0214388, No Iterations 6
smoothSolver:  Solving for Uz, Initial residual = 0.271201, Final residual = 0.0193605, No Iterations 6
GAMG:  Solving for p, Initial residual = 0.00341142, Final residual = 2.36213e-05, No Iterations 3
time step continuity errors : sum local = 0.00288531, global = -9.42445e-05, cumulative = 0.00439747
smoothSolver:  Solving for omega, Initial residual = 0.000706997, Final residual = 5.66e-05, No Iterations 3
smoothSolver:  Solving for k, Initial residual = 0.00775822, Final residual = 0.000664727, No Iterations 3
ExecutionTime = 5.91 s  ClockTime = 6 s

forceCoeffs forceCoeffs1 write:
    Coefficient	Total	Pressure	Viscous	Internal
    Cd:	0.240337	0.226633	0.0137041	0
    Cd(f):	0.128027	0.120901	0.00712585	0
    Cd(r):	0.112311	0.105732	0.00657829	0
    Cl:	0.146971	0.147111	-0.000139836	0
    Cl(f):	0.136689	0.130783	0.00590673	0
    Cl(r):	0.010282	0.0163286	-0.00604656	0
    CmPitch:	0.0632037	0.057227	0.00597665	0
    CmRoll:	0.00785793	0.00758415	0.00027378	0
    CmYaw:	-0.00756844	-0.00737031	-0.000198133	0
    Cs:	-0.0259143	-0.0255552	-0.000359115	0
    Cs(f):	-0.0205256	-0.0201479	-0.00037769	0
    Cs(r):	-0.00538872	-0.0054073	1.85754e-05	0

    writing force and moment coefficient files.

Time = 15

smoothSolver:  Solving for Ux, Initial residual = 0.0743829, Final residual = 0.00665033, No Iterations 5
smoothSolver:  Solving for Uy, Initial residual = 0.226041, Final residual = 0.020576, No Iterations 6
smoothSolver:  Solving for Uz, Initial residual = 0.266144, Final residual = 0.0189019, No Iterations 6
GAMG:  Solving for p, Initial residual = 0.00314846, Final residual = 2.42372e-05, No Iterations 3
time step continuity errors : sum local = 0.00296512, global = -0.000371301, cumulative = 0.00402617
smoothSolver:  Solving for omega, Initial residual = 0.000663922, Final residual = 5.27212e-05, No Iterations 3
smoothSolver:  Solving for k, Initial residual = 0.00704607, Final residual = 0.000626286, No Iterations 3
ExecutionTime = 6.27 s  ClockTime = 6 s

forceCoeffs forceCoeffs1 write:
    Coefficient	Total	Pressure	Viscous	Internal
    Cd:	0.238102	0.224302	0.0138005	0
    Cd(f):	0.126194	0.118995	0.0071996	0
    Cd(r):	0.111908	0.105307	0.00660089	0
    Cl:	0.149339	0.149446	-0.000106383	0
    Cl(f):	0.137843	0.131876	0.005967	0
    Cl(r):	0.0114966	0.0175699	-0.00607338	0
    CmPitch:	0.0631732	0.057153	0.00602019	0
    CmRoll:	0.00714321	0.00684386	0.000299352	0
    CmYaw:	-0.00736488	-0.00714287	-0.000222009	0
    Cs:	-0.024459	-0.0240587	-0.000400248	0
    Cs(f):	-0.0195944	-0.0191722	-0.000422133	0
    Cs(r):	-0.00486461	-0.0048865	2.18848e-05	0

    writing force and moment coefficient files.

Time = 16

smoothSolver:  Solving for Ux, Initial residual = 0.0659924, Final residual = 0.00596928, No Iterations 5
smoothSolver:  Solving for Uy, Initial residual = 0.212749, Final residual = 0.0196961, No Iterations 6
smoothSolver:  Solving for Uz, Initial residual = 0.25986, Final residual = 0.018599, No Iterations 6
GAMG:  Solving for p, Initial residual = 0.00291798, Final residual = 2.41465e-05, No Iterations 3
time step continuity errors : sum local = 0.0029562, global = -0.000740635, cumulative = 0.00328554
smoothSolver:  Solving for omega, Initial residual = 0.000617846, Final residual = 4.91394e-05, No Iterations 3
smoothSolver:  Solving for k, Initial residual = 0.00649649, Final residual = 0.000590772, No Iterations 3
ExecutionTime = 6.64 s  ClockTime = 6 s

forceCoeffs forceCoeffs1 write:
    Coefficient	Total	Pressure	Viscous	Internal
    Cd:	0.237864	0.22396	0.0139045	0
    Cd(f):	0.125736	0.118468	0.00726815	0
    Cd(r):	0.112128	0.105492	0.00663637	0
    Cl:	0.151105	0.151207	-0.000101663	0
    Cl(f):	0.139938	0.133927	0.0060108	0
    Cl(r):	0.0111669	0.0172794	-0.00611247	0
    CmPitch:	0.0643857	0.058324	0.00606163	0
    CmRoll:	0.00680414	0.00648825	0.000315892	0
    CmYaw:	-0.00762111	-0.00736903	-0.000252075	0
    Cs:	-0.0246836	-0.0242565	-0.00042705	0
    Cs(f):	-0.0199629	-0.0194973	-0.0004656	0
    Cs(r):	-0.00472068	-0.00475923	3.85501e-05	0

    writing force and moment coefficient files.

Time = 17

smoothSolver:  Solving for Ux, Initial residual = 0.0589038, Final residual = 0.00539449, No Iterations 5
smoothSolver:  Solving for Uy, Initial residual = 0.199424, Final residual = 0.0185706, No Iterations 6
smoothSolver:  Solving for Uz, Initial residual = 0.247921, Final residual = 0.0180465, No Iterations 6
GAMG:  Solving for p, Initial residual = 0.00272371, Final residual = 2.2393e-05, No Iterations 3
time step continuity errors : sum local = 0.00274124, global = -0.000878643, cumulative = 0.00240689
smoothSolver:  Solving for omega, Initial residual = 0.000580327, Final residual = 4.58377e-05, No Iterations 3
smoothSolver:  Solving for k, Initial residual = 0.00604109, Final residual = 0.000555561, No Iterations 3
ExecutionTime = 7.01 s  ClockTime = 7 s

forceCoeffs forceCoeffs1 write:
    Coefficient	Total	Pressure	Viscous	Internal
    Cd:	0.237983	0.22397	0.0140134	0
    Cd(f):	0.125689	0.118356	0.00733364	0
    Cd(r):	0.112294	0.105614	0.00667972	0
    Cl:	0.152489	0.152595	-0.000105553	0
    Cl(f):	0.142257	0.136195	0.00606197	0
    Cl(r):	0.0102324	0.0164	-0.00616753	0
    CmPitch:	0.0660121	0.0598974	0.00611475	0
    CmRoll:	0.00669774	0.00637078	0.000326963	0
    CmYaw:	-0.00845936	-0.00817394	-0.000285418	0
    Cs:	-0.0258224	-0.0253734	-0.000449002	0
    Cs(f):	-0.0213705	-0.0208606	-0.000509919	0
    Cs(r):	-0.00445182	-0.00451274	6.09173e-05	0

    writing force and moment coefficient files.

Time = 18

smoothSolver:  Solving for Ux, Initial residual = 0.0532518, Final residual = 0.00490088, No Iterations 5
smoothSolver:  Solving for Uy, Initial residual = 0.186922, Final residual = 0.0171138, No Iterations 6
smoothSolver:  Solving for Uz, Initial residual = 0.232592, Final residual = 0.01698, No Iterations 6
GAMG:  Solving for p, Initial residual = 0.00255239, Final residual = 2.03763e-05, No Iterations 3
time step continuity errors : sum local = 0.00249167, global = -0.000815814, cumulative = 0.00159108
smoothSolver:  Solving for omega, Initial residual = 0.000545479, Final residual = 4.28799e-05, No Iterations 3
smoothSolver:  Solving for k, Initial residual = 0.00563575, Final residual = 0.000518933, No Iterations 3
ExecutionTime = 7.38 s  ClockTime = 7 s

forceCoeffs forceCoeffs1 write:
    Coefficient	Total	Pressure	Viscous	Internal
    Cd:	0.237864	0.223749	0.0141149	0
    Cd(f):	0.12505	0.11767	0.00737967	0
    Cd(r):	0.112814	0.106079	0.00673526	0
    Cl:	0.153395	0.153479	-8.37881e-05	0
    Cl(f):	0.144358	0.138245	0.0061128	0
    Cl(r):	0.00903749	0.0152341	-0.00619658	0
    CmPitch:	0.0676602	0.0615055	0.00615469	0
    CmRoll:	0.0061176	0.0057954	0.000322206	0
    CmYaw:	-0.00946305	-0.0091388	-0.00032425	0
    Cs:	-0.02574	-0.025289	-0.000451083	0
    Cs(f):	-0.0223331	-0.0217833	-0.000549791	0
    Cs(r):	-0.00340697	-0.00350568	9.87087e-05	0

    writing force and moment coefficient files.

Time = 19

smoothSolver:  Solving for Ux, Initial residual = 0.0484324, Final residual = 0.00445818, No Iterations 5
smoothSolver:  Solving for Uy, Initial residual = 0.176837, Final residual = 0.0157798, No Iterations 6
smoothSolver:  Solving for Uz, Initial residual = 0.216676, Final residual = 0.0157963, No Iterations 6
GAMG:  Solving for p, Initial residual = 0.00239787, Final residual = 1.75536e-05, No Iterations 3
time step continuity errors : sum local = 0.00214249, global = -0.000663853, cumulative = 0.000927226
smoothSolver:  Solving for omega, Initial residual = 0.000519903, Final residual = 4.05419e-05, No Iterations 3
smoothSolver:  Solving for k, Initial residual = 0.00532619, Final residual = 0.000487254, No Iterations 3
ExecutionTime = 7.74 s  ClockTime = 8 s

forceCoeffs forceCoeffs1 write:
    Coefficient	Total	Pressure	Viscous	Internal
    Cd:	0.23729	0.223094	0.0141961	0
    Cd(f):	0.123296	0.115893	0.00740339	0
    Cd(r):	0.113994	0.107201	0.00679269	0
    Cl:	0.153542	0.153624	-8.11276e-05	0
    Cl(f):	0.145551	0.139414	0.00613638	0
    Cl(r):	0.00799167	0.0142092	-0.00621751	0
    CmPitch:	0.0687795	0.0626026	0.00617694	0
    CmRoll:	0.00465113	0.00434578	0.000305351	0
    CmYaw:	-0.00980681	-0.0094492	-0.000357612	0
    Cs:	-0.0231776	-0.0227401	-0.000437472	0
    Cs(f):	-0.0213956	-0.0208192	-0.000576348	0
    Cs(r):	-0.00178197	-0.00192085	0.000138876	0

    writing force and moment coefficient files.

Time = 20

smoothSolver:  Solving for Ux, Initial residual = 0.0441084, Final residual = 0.00407952, No Iterations 5
smoothSolver:  Solving for Uy, Initial residual = 0.167672, Final residual = 0.0148282, No Iterations 6
smoothSolver:  Solving for Uz, Initial residual = 0.203458, Final residual = 0.0146364, No Iterations 6
GAMG:  Solving for p, Initial residual = 0.00224467, Final residual = 1.48008e-05, No Iterations 3
time step continuity errors : sum local = 0.00180238, global = -0.0004137, cumulative = 0.000513525
smoothSolver:  Solving for omega, Initial residual = 0.000496127, Final residual = 3.8514e-05, No Iterations 3
smoothSolver:  Solving for k, Initial residual = 0.00506992, Final residual = 0.000460911, No Iterations 3
ExecutionTime = 8.11 s  ClockTime = 8 s

forceCoeffs forceCoeffs1 write:
    Coefficient	Total	Pressure	Viscous	Internal
    Cd:	0.236478	0.222231	0.0142466	0
    Cd(f):	0.121102	0.113685	0.00741707	0
    Cd(r):	0.115376	0.108546	0.00682958	0
    Cl:	0.1528	0.152866	-6.54399e-05	0
    Cl(f):	0.145692	0.13954	0.00615166	0
    Cl(r):	0.00710853	0.0133256	-0.0062171	0
    CmPitch:	0.0692915	0.0631072	0.00618438	0
    CmRoll:	0.00286337	0.00256963	0.000293745	0
    CmYaw:	-0.008998	-0.00862232	-0.00037568	0
    Cs:	-0.019228	-0.0187985	-0.000429438	0
    Cs(f):	-0.018612	-0.0180216	-0.000590399	0
    Cs(r):	-0.000615984	-0.000776945	0.000160961	0

    writing force and moment coefficient files.

Time = 21

smoothSolver:  Solving for Ux, Initial residual = 0.0401612, Final residual = 0.00375634, No Iterations 5
smoothSolver:  Solving for Uy, Initial residual = 0.15863, Final residual = 0.0141392, No Iterations 6
smoothSolver:  Solving for Uz, Initial residual = 0.193728, Final residual = 0.013676, No Iterations 6
GAMG:  Solving for p, Initial residual = 0.00209459, Final residual = 1.28837e-05, No Iterations 3
time step continuity errors : sum local = 0.00156605, global = -9.17369e-05, cumulative = 0.000421788
smoothSolver:  Solving for omega, Initial residual = 0.000473947, Final residual = 3.68241e-05, No Iterations 3
smoothSolver:  Solving for k, Initial residual = 0.00483681, Final residual = 0.000438472, No Iterations 3
ExecutionTime = 8.49 s  ClockTime = 8 s

forceCoeffs forceCoeffs1 write:
    Coefficient	Total	Pressure	Viscous	Internal
    Cd:	0.235884	0.221609	0.0142755	0
    Cd(f):	0.119187	0.111763	0.00742385	0
    Cd(r):	0.116698	0.109846	0.00685168	0
    Cl:	0.151547	0.151602	-5.46189e-05	0
    Cl(f):	0.14516	0.138992	0.00616767	0
    Cl(r):	0.00638703	0.0126093	-0.00622229	0
    CmPitch:	0.0693865	0.0631916	0.00619498	0
    CmRoll:	0.0012443	0.000958219	0.000286085	0
    CmYaw:	-0.00731477	-0.00692679	-0.00038798	0
    Cs:	-0.0149585	-0.0145294	-0.000429152	0
    Cs(f):	-0.014794	-0.0141915	-0.000602557	0
    Cs(r):	-0.000164482	-0.000337886	0.000173404	0

    writing force and moment coefficient files.

Time = 22

smoothSolver:  Solving for Ux, Initial residual = 0.0366015, Final residual = 0.00347309, No Iterations 5
smoothSolver:  Solving for Uy, Initial residual = 0.14982, Final residual = 0.0135459, No Iterations 6
smoothSolver:  Solving for Uz, Initial residual = 0.186033, Final residual = 0.0130686, No Iterations 6
GAMG:  Solving for p, Initial residual = 0.00194484, Final residual = 1.24517e-05, No Iterations 3
time step continuity errors : sum local = 0.0015118, global = -6.64748e-06, cumulative = 0.000415141
smoothSolver:  Solving for omega, Initial residual = 0.000453846, Final residual = 3.52082e-05, No Iterations 3
smoothSolver:  Solving for k, Initial residual = 0.00462227, Final residual = 0.000418628, No Iterations 3
ExecutionTime = 8.86 s  ClockTime = 9 s

forceCoeffs forceCoeffs1 write:
    Coefficient	Total	Pressure	Viscous	Internal
    Cd:	0.234802	0.220502	0.0142998	0
    Cd(f):	0.117407	0.109982	0.00742492	0
    Cd(r):	0.117394	0.110519	0.00687485	0
    Cl:	0.150162	0.150204	-4.19012e-05	0
    Cl(f):	0.143812	0.13763	0.00618221	0
    Cl(r):	0.00634993	0.012574	-0.00622411	0
    CmPitch:	0.0687312	0.062528	0.00620316	0
    CmRoll:	6.53542e-06	-0.000268498	0.000275034	0
    CmYaw:	-0.00516066	-0.00475928	-0.000401373	0
    Cs:	-0.0111537	-0.0107311	-0.000422546	0
    Cs(f):	-0.0107375	-0.0101249	-0.000612646	0
    Cs(r):	-0.000416184	-0.000606284	0.0001901	0

    writing force and moment coefficient files.

Time = 23

smoothSolver:  Solving for Ux, Initial residual = 0.0332506, Final residual = 0.00321336, No Iterations 5
smoothSolver:  Solving for Uy, Initial residual = 0.141751, Final residual = 0.0129218, No Iterations 6
smoothSolver:  Solving for Uz, Initial residual = 0.179998, Final residual = 0.0125323, No Iterations 6
GAMG:  Solving for p, Initial residual = 0.00179729, Final residual = 1.1978e-05, No Iterations 3
time step continuity errors : sum local = 0.00145394, global = -5.3775e-05, cumulative = 0.000361366
smoothSolver:  Solving for omega, Initial residual = 0.000431211, Final residual = 3.35224e-05, No Iterations 3
smoothSolver:  Solving for k, Initial residual = 0.00439577, Final residual = 0.000400995, No Iterations 3
ExecutionTime = 9.23 s  ClockTime = 9 s

forceCoeffs forceCoeffs1 write:
    Coefficient	Total	Pressure	Viscous	Internal
    Cd:	0.232549	0.21821	0.0143397	0
    Cd(f):	0.115421	0.107988	0.00743252	0
    Cd(r):	0.117129	0.110222	0.00690715	0
    Cl:	0.149504	0.14952	-1.66864e-05	0
    Cl(f):	0.141682	0.13547	0.00621159	0
    Cl(r):	0.0078218	0.0140501	-0.00622828	0
    CmPitch:	0.0669301	0.0607101	0.00621994	0
    CmRoll:	-0.000853985	-0.00111667	0.000262688	0
    CmYaw:	-0.00280523	-0.00239454	-0.000410695	0
    Cs:	-0.00806403	-0.00766238	-0.000401645	0
    Cs(f):	-0.00683725	-0.00622573	-0.000611517	0
    Cs(r):	-0.00122678	-0.00143665	0.000209873	0

    writing force and moment coefficient files.

Time = 24

smoothSolver:  Solving for Ux, Initial residual = 0.0300979, Final residual = 0.00296827, No Iterations 5
smoothSolver:  Solving for Uy, Initial residual = 0.133782, Final residual = 0.0122031, No Iterations 6
smoothSolver:  Solving for Uz, Initial residual = 0.17402, Final residual = 0.0119055, No Iterations 6
GAMG:  Solving for p, Initial residual = 0.00166292, Final residual = 1.12228e-05, No Iterations 3
time step continuity errors : sum local = 0.00136286, global = -3.03698e-05, cumulative = 0.000330996
smoothSolver:  Solving for omega, Initial residual = 0.000408121, Final residual = 3.17225e-05, No Iterations 3
smoothSolver:  Solving for k, Initial residual = 0.00419826, Final residual = 0.000385663, No Iterations 3
ExecutionTime = 9.6 s  ClockTime = 9 s

forceCoeffs forceCoeffs1 write:
    Coefficient	Total	Pressure	Viscous	Internal
    Cd:	0.229197	0.214806	0.0143912	0
    Cd(f):	0.113197	0.105754	0.00744394	0
    Cd(r):	0.116	0.109053	0.00694729	0
    Cl:	0.15017	0.15015	2.01118e-05	0
    Cl(f):	0.139056	0.132807	0.0062489	0
    Cl(r):	0.0111143	0.0173431	-0.00622879	0
    CmPitch:	0.0639708	0.0577319	0.00623885	0
    CmRoll:	-0.00140122	-0.00164954	0.000248324	0
    CmYaw:	-0.000533599	-0.000126489	-0.00040711	0
    Cs:	-0.00586029	-0.0054933	-0.00036699	0
    Cs(f):	-0.00346374	-0.00287314	-0.000590605	0
    Cs(r):	-0.00239655	-0.00262016	0.000223615	0

    writing force and moment coefficient files.

Time = 25

smoothSolver:  Solving for Ux, Initial residual = 0.0272797, Final residual = 0.0018534, No Iterations 6
smoothSolver:  Solving for Uy, Initial residual = 0.12554, Final residual = 0.0114212, No Iterations 6
smoothSolver:  Solving for Uz, Initial residual = 0.165086, Final residual = 0.0111759, No Iterations 6
GAMG:  Solving for p, Initial residual = 0.00153685, Final residual = 1.06364e-05, No Iterations 3
time step continuity errors : sum local = 0.0012926, global = 9.0326e-05, cumulative = 0.000421322
smoothSolver:  Solving for omega, Initial residual = 0.000385205, Final residual = 3.01383e-05, No Iterations 3
smoothSolver:  Solving for k, Initial residual = 0.00397389, Final residual = 0.00037036, No Iterations 3
ExecutionTime = 9.97 s  ClockTime = 10 s

forceCoeffs forceCoeffs1 write:
    Coefficient	Total	Pressure	Viscous	Internal
    Cd:	0.224804	0.210358	0.014446	0
    Cd(f):	0.110519	0.103062	0.00745743	0
    Cd(r):	0.114285	0.107297	0.00698862	0
    Cl:	0.152686	0.152625	6.16788e-05	0
    Cl(f):	0.136097	0.12981	0.00628705	0
    Cl(r):	0.0165893	0.0228146	-0.00622537	0
    CmPitch:	0.0597539	0.0534977	0.00625621	0
    CmRoll:	-0.00188319	-0.00211759	0.000234402	0
    CmYaw:	0.00135474	0.00175312	-0.000398374	0
    Cs:	-0.00418799	-0.00385806	-0.000329923	0
    Cs(f):	-0.000739252	-0.000175916	-0.000563336	0
    Cs(r):	-0.00344874	-0.00368215	0.000233413	0

    writing force and moment coefficient files.

Time = 26

smoothSolver:  Solving for Ux, Initial residual = 0.024662, Final residual = 0.00171103, No Iterations 6
smoothSolver:  Solving for Uy, Initial residual = 0.116042, Final residual = 0.0105281, No Iterations 6
smoothSolver:  Solving for Uz, Initial residual = 0.153329, Final residual = 0.0103276, No Iterations 6
GAMG:  Solving for p, Initial residual = 0.00142432, Final residual = 9.84566e-06, No Iterations 3
time step continuity errors : sum local = 0.00119743, global = 0.000110858, cumulative = 0.000532181
smoothSolver:  Solving for omega, Initial residual = 0.000365943, Final residual = 2.87751e-05, No Iterations 3
smoothSolver:  Solving for k, Initial residual = 0.00377491, Final residual = 0.00035544, No Iterations 3
ExecutionTime = 10.34 s  ClockTime = 10 s

forceCoeffs forceCoeffs1 write:
    Coefficient	Total	Pressure	Viscous	Internal
    Cd:	0.220762	0.206236	0.0145262	0
    Cd(f):	0.107976	0.100485	0.00749122	0
    Cd(r):	0.112786	0.105751	0.00703499	0
    Cl:	0.156152	0.156055	9.66313e-05	0
    Cl(f):	0.133422	0.127093	0.00632923	0
    Cl(r):	0.0227301	0.0289627	-0.0062326	0
    CmPitch:	0.0553459	0.049065	0.00628092	0
    CmRoll:	-0.00240461	-0.00263273	0.00022812	0
    CmYaw:	0.00250212	0.00288981	-0.000387695	0
    Cs:	-0.00295395	-0.00264292	-0.000311032	0
    Cs(f):	0.00102514	0.00156835	-0.000543212	0
    Cs(r):	-0.00397909	-0.00421127	0.000232179	0

    writing force and moment coefficient files.

Time = 27

smoothSolver:  Solving for Ux, Initial residual = 0.0222536, Final residual = 0.00155332, No Iterations 6
smoothSolver:  Solving for Uy, Initial residual = 0.108152, Final residual = 0.00967975, No Iterations 6
smoothSolver:  Solving for Uz, Initial residual = 0.142987, Final residual = 0.00950709, No Iterations 6
GAMG:  Solving for p, Initial residual = 0.00131809, Final residual = 8.99357e-06, No Iterations 3
time step continuity errors : sum local = 0.00109475, global = 9.78128e-05, cumulative = 0.000629993
smoothSolver:  Solving for omega, Initial residual = 0.000349659, Final residual = 2.76362e-05, No Iterations 3
smoothSolver:  Solving for k, Initial residual = 0.00360722, Final residual = 0.000341879, No Iterations 3
ExecutionTime = 10.72 s  ClockTime = 11 s

forceCoeffs forceCoeffs1 write:
    Coefficient	Total	Pressure	Viscous	Internal
    Cd:	0.217607	0.202988	0.0146197	0
    Cd(f):	0.105891	0.0983614	0.00752964	0
    Cd(r):	0.111716	0.104626	0.00709001	0
    Cl:	0.159531	0.159418	0.000112258	0
    Cl(f):	0.13129	0.124922	0.00636807	0
    Cl(r):	0.0282407	0.0344965	-0.00625581	0
    CmPitch:	0.0515246	0.0452127	0.00631194	0
    CmRoll:	-0.00291271	-0.00313252	0.000219813	0
    CmYaw:	0.00281189	0.00319109	-0.000379196	0
    Cs:	-0.00214476	-0.00184805	-0.000296714	0
    Cs(f):	0.00173951	0.00226707	-0.000527553	0
    Cs(r):	-0.00388427	-0.00411511	0.000230839	0

    writing force and moment coefficient files.

Time = 28

smoothSolver:  Solving for Ux, Initial residual = 0.020097, Final residual = 0.00140265, No Iterations 6
smoothSolver:  Solving for Uy, Initial residual = 0.1009, Final residual = 0.00889172, No Iterations 6
smoothSolver:  Solving for Uz, Initial residual = 0.132037, Final residual = 0.00867589, No Iterations 6
GAMG:  Solving for p, Initial residual = 0.00122398, Final residual = 8.1483e-06, No Iterations 3
time step continuity errors : sum local = 0.000992713, global = 7.1424e-05, cumulative = 0.000701417
smoothSolver:  Solving for omega, Initial residual = 0.000333535, Final residual = 2.65516e-05, No Iterations 3
smoothSolver:  Solving for k, Initial residual = 0.00347608, Final residual = 0.000331475, No Iterations 3
ExecutionTime = 11.09 s  ClockTime = 11 s

forceCoeffs forceCoeffs1 write:
    Coefficient	Total	Pressure	Viscous	Internal
    Cd:	0.215309	0.200587	0.0147226	0
    Cd(f):	0.104429	0.0968541	0.00757541	0
    Cd(r):	0.11088	0.103733	0.00714724	0
    Cl:	0.162201	0.162085	0.000115891	0
    Cl(f):	0.129757	0.123346	0.00641096	0
    Cl(r):	0.0324437	0.0387388	-0.00629507	0
    CmPitch:	0.0486569	0.0423038	0.00635302	0
    CmRoll:	-0.00322518	-0.00343927	0.000214086	0
    CmYaw:	0.00255822	0.00293035	-0.000372131	0
    Cs:	-0.00176132	-0.00147112	-0.000290197	0
    Cs(f):	0.00167756	0.00219479	-0.000517229	0
    Cs(r):	-0.00343888	-0.00366591	0.000227032	0

    writing force and moment coefficient files.

Time = 29

smoothSolver:  Solving for Ux, Initial residual = 0.0183015, Final residual = 0.00126137, No Iterations 6
smoothSolver:  Solving for Uy, Initial residual = 0.0938, Final residual = 0.00817592, No Iterations 6
smoothSolver:  Solving for Uz, Initial residual = 0.121037, Final residual = 0.00791647, No Iterations 6
GAMG:  Solving for p, Initial residual = 0.00114115, Final residual = 7.37162e-06, No Iterations 3
time step continuity errors : sum local = 0.00089868, global = 4.48881e-05, cumulative = 0.000746305
smoothSolver:  Solving for omega, Initial residual = 0.000319915, Final residual = 2.54954e-05, No Iterations 3
smoothSolver:  Solving for k, Initial residual = 0.00339528, Final residual = 0.000322953, No Iterations 3
ExecutionTime = 11.46 s  ClockTime = 11 s

forceCoeffs forceCoeffs1 write:
    Coefficient	Total	Pressure	Viscous	Internal
    Cd:	0.213648	0.19883	0.0148181	0
    Cd(f):	0.103443	0.0958242	0.00761848	0
    Cd(r):	0.110206	0.103006	0.00719963	0
    Cl:	0.16457	0.16446	0.000109949	0
    Cl(f):	0.128946	0.122499	0.00644695	0
    Cl(r):	0.0356234	0.0419604	-0.00633701	0
    CmPitch:	0.0466614	0.0402694	0.00639198	0
    CmRoll:	-0.00338155	-0.00359098	0.000209428	0
    CmYaw:	0.00200972	0.00237855	-0.000368831	0
    Cs:	-0.0015169	-0.00122604	-0.000290865	0
    Cs(f):	0.00125127	0.00176553	-0.000514263	0
    Cs(r):	-0.00276817	-0.00299157	0.000223399	0

    writing force and moment coefficient files.

Time = 30

smoothSolver:  Solving for Ux, Initial residual = 0.0166976, Final residual = 0.0011318, No Iterations 6
smoothSolver:  Solving for Uy, Initial residual = 0.0873228, Final residual = 0.00749773, No Iterations 6
smoothSolver:  Solving for Uz, Initial residual = 0.110382, Final residual = 0.00725016, No Iterations 6
GAMG:  Solving for p, Initial residual = 0.00106435, Final residual = 6.61344e-06, No Iterations 3
time step continuity errors : sum local = 0.000806233, global = 2.5247e-05, cumulative = 0.000771552
smoothSolver:  Solving for omega, Initial residual = 0.000306026, Final residual = 2.4431e-05, No Iterations 3
smoothSolver:  Solving for k, Initial residual = 0.00330427, Final residual = 0.000313908, No Iterations 3
ExecutionTime = 11.83 s  ClockTime = 12 s

forceCoeffs forceCoeffs1 write:
    Coefficient	Total	Pressure	Viscous	Internal
    Cd:	0.212111	0.197215	0.0148957	0
    Cd(f):	0.102574	0.0949222	0.00765155	0
    Cd(r):	0.109537	0.102293	0.00724415	0
    Cl:	0.166896	0.166794	0.000102	0
    Cl(f):	0.128779	0.122307	0.0064723	0
    Cl(r):	0.0381164	0.0444867	-0.0063703	0
    CmPitch:	0.0453315	0.0389102	0.0064213	0
    CmRoll:	-0.00348172	-0.00368542	0.000203701	0
    CmYaw:	0.00152416	0.00188762	-0.000363459	0
    Cs:	-0.00121043	-0.000921035	-0.000289397	0
    Cs(f):	0.000918945	0.0014271	-0.000508157	0
    Cs(r):	-0.00212938	-0.00234814	0.000218761	0

    writing force and moment coefficient files.

Time = 31

smoothSolver:  Solving for Ux, Initial residual = 0.0152628, Final residual = 0.00101725, No Iterations 6
smoothSolver:  Solving for Uy, Initial residual = 0.0819071, Final residual = 0.00690083, No Iterations 6
smoothSolver:  Solving for Uz, Initial residual = 0.101906, Final residual = 0.0066709, No Iterations 6
GAMG:  Solving for p, Initial residual = 0.000990572, Final residual = 5.84065e-06, No Iterations 3
time step continuity errors : sum local = 0.000711877, global = 1.41736e-05, cumulative = 0.000785726
smoothSolver:  Solving for omega, Initial residual = 0.000289131, Final residual = 2.338e-05, No Iterations 3
smoothSolver:  Solving for k, Initial residual = 0.00318627, Final residual = 0.000305282, No Iterations 3
ExecutionTime = 12.19 s  ClockTime = 12 s

forceCoeffs forceCoeffs1 write:
    Coefficient	Total	Pressure	Viscous	Internal
    Cd:	0.210367	0.195416	0.0149508	0
    Cd(f):	0.101444	0.0937708	0.00767331	0
    Cd(r):	0.108922	0.101645	0.00727744	0
    Cl:	0.16906	0.168966	9.3722e-05	0
    Cl(f):	0.129031	0.122542	0.00648836	0
    Cl(r):	0.0400293	0.046424	-0.00639464	0
    CmPitch:	0.0445007	0.0380592	0.0064415	0
    CmRoll:	-0.0037392	-0.00393714	0.000197936	0
    CmYaw:	0.00123484	0.00159075	-0.00035591	0
    Cs:	-0.000469968	-0.000186348	-0.00028362	0
    Cs(f):	0.000999856	0.00149758	-0.000497721	0
    Cs(r):	-0.00146982	-0.00168392	0.0002141	0

    writing force and moment coefficient files.

Time = 32

smoothSolver:  Solving for Ux, Initial residual = 0.0139705, Final residual = 0.000914699, No Iterations 6
smoothSolver:  Solving for Uy, Initial residual = 0.0769967, Final residual = 0.00636219, No Iterations 6
smoothSolver:  Solving for Uz, Initial residual = 0.0953002, Final residual = 0.00621237, No Iterations 6
GAMG:  Solving for p, Initial residual = 0.00092112, Final residual = 5.13999e-06, No Iterations 3
time step continuity errors : sum local = 0.000626362, global = 1.22963e-05, cumulative = 0.000798022
smoothSolver:  Solving for omega, Initial residual = 0.0002753, Final residual = 2.22756e-05, No Iterations 3
smoothSolver:  Solving for k, Initial residual = 0.00306869, Final residual = 0.000296244, No Iterations 3
ExecutionTime = 12.56 s  ClockTime = 12 s

forceCoeffs forceCoeffs1 write:
    Coefficient	Total	Pressure	Viscous	Internal
    Cd:	0.208084	0.193093	0.0149908	0
    Cd(f):	0.0999079	0.0922232	0.00768463	0
    Cd(r):	0.108176	0.10087	0.00730616	0
    Cl:	0.170725	0.170632	9.26126e-05	0
    Cl(f):	0.12922	0.122725	0.00649563	0
    Cl(r):	0.0415044	0.0479074	-0.00640301	0
    CmPitch:	0.0438579	0.0374086	0.00644932	0
    CmRoll:	-0.00413402	-0.00432325	0.000189234	0
    CmYaw:	0.00128081	0.00162524	-0.000344428	0
    Cs:	0.00051412	0.000781437	-0.000267317	0
    Cs(f):	0.00153787	0.00201596	-0.000478086	0
    Cs(r):	-0.00102375	-0.00123452	0.00021077	0

    writing force and moment coefficient files.

Time = 33

smoothSolver:  Solving for Ux, Initial residual = 0.0128597, Final residual = 0.00127259, No Iterations 5
smoothSolver:  Solving for Uy, Initial residual = 0.0724592, Final residual = 0.00585891, No Iterations 6
smoothSolver:  Solving for Uz, Initial residual = 0.0897375, Final residual = 0.00579246, No Iterations 6
GAMG:  Solving for p, Initial residual = 0.000859119, Final residual = 4.71287e-06, No Iterations 3
time step continuity errors : sum local = 0.000574262, global = -5.22624e-06, cumulative = 0.000792796
smoothSolver:  Solving for omega, Initial residual = 0.000262745, Final residual = 2.11368e-05, No Iterations 3
smoothSolver:  Solving for k, Initial residual = 0.00296566, Final residual = 0.000286659, No Iterations 3
ExecutionTime = 12.92 s  ClockTime = 13 s

forceCoeffs forceCoeffs1 write:
    Coefficient	Total	Pressure	Viscous	Internal
    Cd:	0.205703	0.190676	0.0150275	0
    Cd(f):	0.0982361	0.0905431	0.00769294	0
    Cd(r):	0.107467	0.100133	0.00733455	0
    Cl:	0.171606	0.171509	9.67745e-05	0
    Cl(f):	0.129248	0.122744	0.00650407	0
    Cl(r):	0.0423572	0.0487645	-0.0064073	0
    CmPitch:	0.0434456	0.0369899	0.00645568	0
    CmRoll:	-0.00461559	-0.00479479	0.000179198	0
    CmYaw:	0.00146039	0.00179112	-0.000330727	0
    Cs:	0.0016748	0.00192224	-0.000247434	0
    Cs(f):	0.00229779	0.00275224	-0.000454444	0
    Cs(r):	-0.000622991	-0.000830001	0.00020701	0

    writing force and moment coefficient files.

Time = 34

smoothSolver:  Solving for Ux, Initial residual = 0.0117938, Final residual = 0.00114359, No Iterations 5
smoothSolver:  Solving for Uy, Initial residual = 0.0686334, Final residual = 0.00546285, No Iterations 6
smoothSolver:  Solving for Uz, Initial residual = 0.0845836, Final residual = 0.00839132, No Iterations 5
GAMG:  Solving for p, Initial residual = 0.000802581, Final residual = 4.45281e-06, No Iterations 3
time step continuity errors : sum local = 0.000542584, global = 7.15545e-06, cumulative = 0.000799952
smoothSolver:  Solving for omega, Initial residual = 0.000251142, Final residual = 2.01099e-05, No Iterations 3
smoothSolver:  Solving for k, Initial residual = 0.00287171, Final residual = 0.000277609, No Iterations 3
ExecutionTime = 13.29 s  ClockTime = 13 s

forceCoeffs forceCoeffs1 write:
    Coefficient	Total	Pressure	Viscous	Internal
    Cd:	0.20349	0.188432	0.015058	0
    Cd(f):	0.0966488	0.0889509	0.00769785	0
    Cd(r):	0.106841	0.0994807	0.00736016	0
    Cl:	0.172143	0.172045	9.77763e-05	0
    Cl(f):	0.129153	0.122646	0.00650755	0
    Cl(r):	0.0429892	0.049399	-0.00640977	0
    CmPitch:	0.0430821	0.0366235	0.00645866	0
    CmRoll:	-0.00509606	-0.0052649	0.000168843	0
    CmYaw:	0.00178535	0.00209955	-0.000314201	0
    Cs:	0.00273341	0.00295887	-0.000225463	0
    Cs(f):	0.00315205	0.00357898	-0.000426933	0
    Cs(r):	-0.000418642	-0.000620111	0.00020147	0

    writing force and moment coefficient files.

Time = 35

smoothSolver:  Solving for Ux, Initial residual = 0.0108634, Final residual = 0.00104586, No Iterations 5
smoothSolver:  Solving for Uy, Initial residual = 0.0646577, Final residual = 0.00505847, No Iterations 6
smoothSolver:  Solving for Uz, Initial residual = 0.0792562, Final residual = 0.00770818, No Iterations 5
GAMG:  Solving for p, Initial residual = 0.000746178, Final residual = 4.23089e-06, No Iterations 3
time step continuity errors : sum local = 0.000515609, global = 2.25843e-05, cumulative = 0.000822536
smoothSolver:  Solving for omega, Initial residual = 0.000239509, Final residual = 1.91192e-05, No Iterations 3
smoothSolver:  Solving for k, Initial residual = 0.00277809, Final residual = 0.000268707, No Iterations 3
ExecutionTime = 13.65 s  ClockTime = 13 s

forceCoeffs forceCoeffs1 write:
    Coefficient	Total	Pressure	Viscous	Internal
    Cd:	0.201657	0.186576	0.0150804	0
    Cd(f):	0.095275	0.0875843	0.00769073	0
    Cd(r):	0.106382	0.098992	0.00738971	0
    Cl:	0.17231	0.172215	9.46404e-05	0
    Cl(f):	0.128915	0.122406	0.00650848	0
    Cl(r):	0.0433952	0.0498091	-0.00641384	0
    CmPitch:	0.0427598	0.0362987	0.00646116	0
    CmRoll:	-0.00555336	-0.00570387	0.000150509	0
    CmYaw:	0.00204052	0.0023324	-0.000291878	0
    Cs:	0.00373973	0.0039297	-0.000189967	0
    Cs(f):	0.00391039	0.00429725	-0.000386862	0
    Cs(r):	-0.000170659	-0.000367554	0.000196895	0

    writing force and moment coefficient files.

Time = 36

smoothSolver:  Solving for Ux, Initial residual = 0.00994469, Final residual = 0.000958159, No Iterations 5
smoothSolver:  Solving for Uy, Initial residual = 0.0601345, Final residual = 0.00470843, No Iterations 6
smoothSolver:  Solving for Uz, Initial residual = 0.074283, Final residual = 0.00718885, No Iterations 5
GAMG:  Solving for p, Initial residual = 0.000693813, Final residual = 3.99178e-06, No Iterations 3
time step continuity errors : sum local = 0.000486579, global = 3.12946e-05, cumulative = 0.00085383
smoothSolver:  Solving for omega, Initial residual = 0.000228307, Final residual = 1.81848e-05, No Iterations 3
smoothSolver:  Solving for k, Initial residual = 0.00269361, Final residual = 0.000261177, No Iterations 3
ExecutionTime = 14.02 s  ClockTime = 14 s

forceCoeffs forceCoeffs1 write:
    Coefficient	Total	Pressure	Viscous	Internal
    Cd:	0.200421	0.18532	0.0151009	0
    Cd(f):	0.0941711	0.0864946	0.00767654	0
    Cd(r):	0.10625	0.0988255	0.00742437	0
    Cl:	0.172413	0.172328	8.49719e-05	0
    Cl(f):	0.128765	0.122261	0.00650401	0
    Cl(r):	0.0436487	0.0500678	-0.00641904	0
    CmPitch:	0.0425579	0.0360964	0.00646152	0
    CmRoll:	-0.00603939	-0.00616547	0.000126086	0
    CmYaw:	0.00231597	0.00258296	-0.000266991	0
    Cs:	0.00480856	0.00495597	-0.000147406	0
    Cs(f):	0.00472026	0.00506095	-0.000340694	0
    Cs(r):	8.83081e-05	-0.00010498	0.000193288	0

    writing force and moment coefficient files.

Time = 37

smoothSolver:  Solving for Ux, Initial residual = 0.00914186, Final residual = 0.000880996, No Iterations 5
smoothSolver:  Solving for Uy, Initial residual = 0.0561933, Final residual = 0.00441175, No Iterations 6
smoothSolver:  Solving for Uz, Initial residual = 0.0695552, Final residual = 0.00670028, No Iterations 5
GAMG:  Solving for p, Initial residual = 0.000646328, Final residual = 3.77728e-06, No Iterations 3
time step continuity errors : sum local = 0.000460564, global = 3.32975e-05, cumulative = 0.000887128
smoothSolver:  Solving for omega, Initial residual = 0.000217646, Final residual = 1.72918e-05, No Iterations 3
smoothSolver:  Solving for k, Initial residual = 0.00261387, Final residual = 0.00025444, No Iterations 3
ExecutionTime = 14.39 s  ClockTime = 14 s

forceCoeffs forceCoeffs1 write:
    Coefficient	Total	Pressure	Viscous	Internal
    Cd:	0.199597	0.18448	0.0151167	0
    Cd(f):	0.0932907	0.0856343	0.00765641	0
    Cd(r):	0.106306	0.0988461	0.00746026	0
    Cl:	0.172429	0.172357	7.168e-05	0
    Cl(f):	0.128569	0.122072	0.00649785	0
    Cl(r):	0.0438597	0.0502859	-0.00642617	0
    CmPitch:	0.0423548	0.0358928	0.00646201	0
    CmRoll:	-0.00650782	-0.00660589	9.80715e-05	0
    CmYaw:	0.00256262	0.00280707	-0.000244447	0
    Cs:	0.00590966	0.00601019	-0.00010053	0
    Cs(f):	0.00551745	0.00581216	-0.000294712	0
    Cs(r):	0.000392212	0.000198029	0.000194182	0

    writing force and moment coefficient files.

Time = 38

smoothSolver:  Solving for Ux, Initial residual = 0.0084156, Final residual = 0.000809693, No Iterations 5
smoothSolver:  Solving for Uy, Initial residual = 0.0526496, Final residual = 0.00414736, No Iterations 6
smoothSolver:  Solving for Uz, Initial residual = 0.0648392, Final residual = 0.0062302, No Iterations 5
GAMG:  Solving for p, Initial residual = 0.000601803, Final residual = 3.57305e-06, No Iterations 3
time step continuity errors : sum local = 0.000435779, global = 2.60763e-05, cumulative = 0.000913204
smoothSolver:  Solving for omega, Initial residual = 0.00020696, Final residual = 1.63705e-05, No Iterations 3
smoothSolver:  Solving for k, Initial residual = 0.00253361, Final residual = 0.000247773, No Iterations 3
ExecutionTime = 14.75 s  ClockTime = 15 s

forceCoeffs forceCoeffs1 write:
    Coefficient	Total	Pressure	Viscous	Internal
    Cd:	0.199022	0.183887	0.0151344	0
    Cd(f):	0.0926488	0.0850061	0.00764272	0
    Cd(r):	0.106373	0.0988812	0.00749164	0
    Cl:	0.172602	0.17254	6.23097e-05	0
    Cl(f):	0.128435	0.121945	0.0064897	0
    Cl(r):	0.0441677	0.0505951	-0.00642739	0
    CmPitch:	0.0421335	0.035675	0.00645854	0
    CmRoll:	-0.00686201	-0.00693755	7.55399e-05	0
    CmYaw:	0.00284134	0.00306619	-0.000224854	0
    Cs:	0.00679904	0.00686639	-6.73516e-05	0
    Cs(f):	0.00624085	0.00649938	-0.000258529	0
    Cs(r):	0.000558182	0.000367004	0.000191178	0

    writing force and moment coefficient files.

Time = 39

smoothSolver:  Solving for Ux, Initial residual = 0.00778397, Final residual = 0.000743834, No Iterations 5
smoothSolver:  Solving for Uy, Initial residual = 0.0494505, Final residual = 0.00388499, No Iterations 6
smoothSolver:  Solving for Uz, Initial residual = 0.0603813, Final residual = 0.00575707, No Iterations 5
GAMG:  Solving for p, Initial residual = 0.00056066, Final residual = 3.35681e-06, No Iterations 3
time step continuity errors : sum local = 0.000409492, global = 1.32545e-05, cumulative = 0.000926459
smoothSolver:  Solving for omega, Initial residual = 0.00019733, Final residual = 1.55374e-05, No Iterations 3
smoothSolver:  Solving for k, Initial residual = 0.00246591, Final residual = 0.000241149, No Iterations 3
ExecutionTime = 15.12 s  ClockTime = 15 s

forceCoeffs forceCoeffs1 write:
    Coefficient	Total	Pressure	Viscous	Internal
    Cd:	0.198544	0.183388	0.0151555	0
    Cd(f):	0.0921971	0.0845619	0.00763513	0
    Cd(r):	0.106347	0.0988265	0.00752041	0
    Cl:	0.17274	0.172676	6.40758e-05	0
    Cl(f):	0.128223	0.121735	0.00648804	0
    Cl(r):	0.0445166	0.0509406	-0.00642396	0
    CmPitch:	0.0418533	0.0353973	0.006456	0
    CmRoll:	-0.00707493	-0.00713229	5.73596e-05	0
    CmYaw:	0.00313188	0.00334149	-0.000209608	0
    Cs:	0.00745107	0.00749144	-4.03709e-05	0
    Cs(f):	0.00685742	0.00708721	-0.000229794	0
    Cs(r):	0.000593648	0.000404225	0.000189423	0

    writing force and moment coefficient files.

Time = 40

smoothSolver:  Solving for Ux, Initial residual = 0.00721492, Final residual = 0.000683896, No Iterations 5
smoothSolver:  Solving for Uy, Initial residual = 0.0464057, Final residual = 0.00363609, No Iterations 6
smoothSolver:  Solving for Uz, Initial residual = 0.0556715, Final residual = 0.0052947, No Iterations 5
GAMG:  Solving for p, Initial residual = 0.000523049, Final residual = 3.10937e-06, No Iterations 3
time step continuity errors : sum local = 0.000379375, global = -8.84691e-07, cumulative = 0.000925574
smoothSolver:  Solving for omega, Initial residual = 0.00018682, Final residual = 1.47648e-05, No Iterations 3
smoothSolver:  Solving for k, Initial residual = 0.00239279, Final residual = 0.000235173, No Iterations 3
ExecutionTime = 15.49 s  ClockTime = 15 s

forceCoeffs forceCoeffs1 write:
    Coefficient	Total	Pressure	Viscous	Internal
    Cd:	0.198121	0.18293	0.015191	0
    Cd(f):	0.0918998	0.0842581	0.00764165	0
    Cd(r):	0.106221	0.0986721	0.00754939	0
    Cl:	0.173021	0.172954	6.74785e-05	0
    Cl(f):	0.128079	0.12159	0.00648917	0
    Cl(r):	0.0449417	0.0513634	-0.00642169	0
    CmPitch:	0.0415689	0.0351134	0.00645543	0
    CmRoll:	-0.00716085	-0.00720699	4.61313e-05	0
    CmYaw:	0.00344031	0.00363816	-0.000197845	0
    Cs:	0.00780279	0.00783024	-2.74504e-05	0
    Cs(f):	0.00734171	0.00755328	-0.00021157	0
    Cs(r):	0.000461081	0.000276961	0.00018412	0

    writing force and moment coefficient files.

Time = 41

smoothSolver:  Solving for Ux, Initial residual = 0.00670128, Final residual = 0.000629624, No Iterations 5
smoothSolver:  Solving for Uy, Initial residual = 0.0436007, Final residual = 0.00341429, No Iterations 6
smoothSolver:  Solving for Uz, Initial residual = 0.0513563, Final residual = 0.00487324, No Iterations 5
GAMG:  Solving for p, Initial residual = 0.000489135, Final residual = 2.89096e-06, No Iterations 3
time step continuity errors : sum local = 0.00035277, global = -1.26713e-05, cumulative = 0.000912903
smoothSolver:  Solving for omega, Initial residual = 0.000177089, Final residual = 1.41182e-05, No Iterations 3
smoothSolver:  Solving for k, Initial residual = 0.00231693, Final residual = 0.000229581, No Iterations 3
ExecutionTime = 15.84 s  ClockTime = 16 s

forceCoeffs forceCoeffs1 write:
    Coefficient	Total	Pressure	Viscous	Internal
    Cd:	0.197831	0.182601	0.0152304	0
    Cd(f):	0.0917679	0.084114	0.00765392	0
    Cd(r):	0.106063	0.0984869	0.00757651	0
    Cl:	0.173254	0.173176	7.80963e-05	0
    Cl(f):	0.128004	0.12151	0.00649354	0
    Cl(r):	0.0452505	0.051666	-0.00641545	0
    CmPitch:	0.0413766	0.0349221	0.00645449	0
    CmRoll:	-0.00714774	-0.00718645	3.87025e-05	0
    CmYaw:	0.00367136	0.00386348	-0.000192118	0
    Cs:	0.00789581	0.00791686	-2.10521e-05	0
    Cs(f):	0.00761926	0.0078219	-0.000202644	0
    Cs(r):	0.000276546	9.49541e-05	0.000181592	0

    writing force and moment coefficient files.

Time = 42

smoothSolver:  Solving for Ux, Initial residual = 0.00620226, Final residual = 0.000580109, No Iterations 5
smoothSolver:  Solving for Uy, Initial residual = 0.0408017, Final residual = 0.00320635, No Iterations 6
smoothSolver:  Solving for Uz, Initial residual = 0.0474549, Final residual = 0.00452564, No Iterations 5
GAMG:  Solving for p, Initial residual = 0.000458726, Final residual = 2.70627e-06, No Iterations 3
time step continuity errors : sum local = 0.000330263, global = -2.12039e-05, cumulative = 0.000891699
smoothSolver:  Solving for omega, Initial residual = 0.000168831, Final residual = 1.3514e-05, No Iterations 3
smoothSolver:  Solving for k, Initial residual = 0.00224549, Final residual = 0.000224193, No Iterations 3
ExecutionTime = 16.2 s  ClockTime = 16 s

forceCoeffs forceCoeffs1 write:
    Coefficient	Total	Pressure	Viscous	Internal
    Cd:	0.197692	0.182423	0.0152688	0
    Cd(f):	0.0916925	0.0840212	0.00767129	0
    Cd(r):	0.106	0.0984021	0.00759746	0
    Cl:	0.173305	0.17322	8.47235e-05	0
    Cl(f):	0.128036	0.12154	0.00649604	0
    Cl(r):	0.0452692	0.0516805	-0.00641132	0
    CmPitch:	0.0413834	0.0349297	0.00645368	0
    CmRoll:	-0.0071535	-0.00719041	3.69134e-05	0
    CmYaw:	0.00378289	0.00397347	-0.000190576	0
    Cs:	0.00786114	0.00788638	-2.52389e-05	0
    Cs(f):	0.00771346	0.00791666	-0.000203195	0
    Cs(r):	0.000147675	-3.02811e-05	0.000177956	0

    writing force and moment coefficient files.

Time = 43

smoothSolver:  Solving for Ux, Initial residual = 0.0057529, Final residual = 0.000535434, No Iterations 5
smoothSolver:  Solving for Uy, Initial residual = 0.0382174, Final residual = 0.0030207, No Iterations 6
smoothSolver:  Solving for Uz, Initial residual = 0.0441851, Final residual = 0.00424279, No Iterations 5
GAMG:  Solving for p, Initial residual = 0.00043097, Final residual = 2.56807e-06, No Iterations 3
time step continuity errors : sum local = 0.000313409, global = -2.46317e-05, cumulative = 0.000867067
smoothSolver:  Solving for omega, Initial residual = 0.000161569, Final residual = 1.29223e-05, No Iterations 3
smoothSolver:  Solving for k, Initial residual = 0.00219109, Final residual = 0.000100916, No Iterations 4
ExecutionTime = 16.57 s  ClockTime = 16 s

forceCoeffs forceCoeffs1 write:
    Coefficient	Total	Pressure	Viscous	Internal
    Cd:	0.197711	0.182401	0.0153105	0
    Cd(f):	0.0915368	0.083843	0.00769381	0
    Cd(r):	0.106174	0.0985577	0.00761665	0
    Cl:	0.173173	0.17308	9.28875e-05	0
    Cl(f):	0.128123	0.121618	0.00650482	0
    Cl(r):	0.04505	0.0514619	-0.00641194	0
    CmPitch:	0.0415363	0.0350779	0.00645838	0
    CmRoll:	-0.00731874	-0.00735732	3.85801e-05	0
    CmYaw:	0.00376646	0.00396158	-0.000195113	0
    Cs:	0.00795823	0.00799269	-3.44563e-05	0
    Cs(f):	0.00774558	0.00795792	-0.000212341	0
    Cs(r):	0.000212651	3.47659e-05	0.000177885	0

    writing force and moment coefficient files.

Time = 44

smoothSolver:  Solving for Ux, Initial residual = 0.00536202, Final residual = 0.000498214, No Iterations 5
smoothSolver:  Solving for Uy, Initial residual = 0.0358109, Final residual = 0.00283294, No Iterations 6
smoothSolver:  Solving for Uz, Initial residual = 0.0412851, Final residual = 0.00401034, No Iterations 5
GAMG:  Solving for p, Initial residual = 0.000404921, Final residual = 2.44829e-06, No Iterations 3
time step continuity errors : sum local = 0.000298786, global = -2.50787e-05, cumulative = 0.000841988
smoothSolver:  Solving for omega, Initial residual = 0.000155284, Final residual = 1.23135e-05, No Iterations 3
smoothSolver:  Solving for k, Initial residual = 0.00213274, Final residual = 9.90743e-05, No Iterations 4
ExecutionTime = 16.94 s  ClockTime = 17 s

forceCoeffs forceCoeffs1 write:
    Coefficient	Total	Pressure	Viscous	Internal
    Cd:	0.197849	0.182495	0.0153546	0
    Cd(f):	0.0912288	0.0835096	0.00771917	0
    Cd(r):	0.106621	0.0989851	0.00763544	0
    Cl:	0.172989	0.172893	9.64063e-05	0
    Cl(f):	0.128311	0.121795	0.00651641	0
    Cl(r):	0.0446783	0.0510983	-0.00642001	0
    CmPitch:	0.0418164	0.0353482	0.00646821	0
    CmRoll:	-0.00769585	-0.00773772	4.18667e-05	0
    CmYaw:	0.00365167	0.00385261	-0.000200942	0
    Cs:	0.00830169	0.00834727	-4.55829e-05	0
    Cs(f):	0.00780252	0.00802625	-0.000223734	0
    Cs(r):	0.000499172	0.000321021	0.000178151	0

    writing force and moment coefficient files.

Time = 45

smoothSolver:  Solving for Ux, Initial residual = 0.00501432, Final residual = 0.000465647, No Iterations 5
smoothSolver:  Solving for Uy, Initial residual = 0.0335673, Final residual = 0.00265757, No Iterations 6
smoothSolver:  Solving for Uz, Initial residual = 0.0388814, Final residual = 0.00380085, No Iterations 5
GAMG:  Solving for p, Initial residual = 0.000379505, Final residual = 2.36916e-06, No Iterations 3
time step continuity errors : sum local = 0.000289114, global = -2.50065e-05, cumulative = 0.000816982
smoothSolver:  Solving for omega, Initial residual = 0.000149468, Final residual = 1.17632e-05, No Iterations 3
smoothSolver:  Solving for k, Initial residual = 0.00208273, Final residual = 9.67033e-05, No Iterations 4
ExecutionTime = 17.31 s  ClockTime = 17 s

forceCoeffs forceCoeffs1 write:
    Coefficient	Total	Pressure	Viscous	Internal
    Cd:	0.198035	0.182648	0.0153873	0
    Cd(f):	0.0907519	0.0830109	0.00774109	0
    Cd(r):	0.107283	0.0996369	0.00764622	0
    Cl:	0.172963	0.172864	9.88253e-05	0
    Cl(f):	0.128582	0.122056	0.0065261	0
    Cl(r):	0.0443813	0.0508086	-0.00642727	0
    CmPitch:	0.0421004	0.0356237	0.00647669	0
    CmRoll:	-0.00826561	-0.00831304	4.7438e-05	0
    CmYaw:	0.00345593	0.0036664	-0.000210478	0
    Cs:	0.00897932	0.00903862	-5.93027e-05	0
    Cs(f):	0.00794558	0.00818571	-0.000240129	0
    Cs(r):	0.00103373	0.000852906	0.000180827	0

    writing force and moment coefficient files.

Time = 46

smoothSolver:  Solving for Ux, Initial residual = 0.00469794, Final residual = 0.000436815, No Iterations 5
smoothSolver:  Solving for Uy, Initial residual = 0.0313735, Final residual = 0.00249234, No Iterations 6
smoothSolver:  Solving for Uz, Initial residual = 0.0365622, Final residual = 0.00360959, No Iterations 5
GAMG:  Solving for p, Initial residual = 0.000355082, Final residual = 2.30638e-06, No Iterations 3
time step continuity errors : sum local = 0.00028143, global = -2.50753e-05, cumulative = 0.000791907
smoothSolver:  Solving for omega, Initial residual = 0.000144525, Final residual = 1.13094e-05, No Iterations 3
smoothSolver:  Solving for k, Initial residual = 0.00204055, Final residual = 9.44209e-05, No Iterations 4
ExecutionTime = 17.68 s  ClockTime = 18 s

forceCoeffs forceCoeffs1 write:
    Coefficient	Total	Pressure	Viscous	Internal
    Cd:	0.198269	0.182849	0.0154193	0
    Cd(f):	0.0901582	0.0823966	0.00776155	0
    Cd(r):	0.108111	0.100453	0.00765778	0
    Cl:	0.173041	0.172941	9.97091e-05	0
    Cl(f):	0.128898	0.122362	0.00653647	0
    Cl(r):	0.0441428	0.0505796	-0.00643677	0
    CmPitch:	0.0423776	0.035891	0.00648662	0
    CmRoll:	-0.00897622	-0.0090281	5.18856e-05	0
    CmYaw:	0.0031862	0.0034041	-0.000217901	0
    Cs:	0.00996101	0.0100289	-6.79151e-05	0
    Cs(f):	0.0081667	0.00841856	-0.000251858	0
    Cs(r):	0.00179431	0.00161037	0.000183943	0

    writing force and moment coefficient files.

Time = 47

smoothSolver:  Solving for Ux, Initial residual = 0.00440039, Final residual = 0.000411312, No Iterations 5
smoothSolver:  Solving for Uy, Initial residual = 0.0293777, Final residual = 0.00235985, No Iterations 6
smoothSolver:  Solving for Uz, Initial residual = 0.0344865, Final residual = 0.00342381, No Iterations 5
GAMG:  Solving for p, Initial residual = 0.000331973, Final residual = 2.21542e-06, No Iterations 3
time step continuity errors : sum local = 0.000270312, global = -2.19421e-05, cumulative = 0.000769965
smoothSolver:  Solving for omega, Initial residual = 0.000140337, Final residual = 1.09683e-05, No Iterations 3
smoothSolver:  Solving for k, Initial residual = 0.00200608, Final residual = 0.0002004, No Iterations 3
ExecutionTime = 18.04 s  ClockTime = 18 s

forceCoeffs forceCoeffs1 write:
    Coefficient	Total	Pressure	Viscous	Internal
    Cd:	0.198456	0.18301	0.0154461	0
    Cd(f):	0.089502	0.0817238	0.00777822	0
    Cd(r):	0.108954	0.101286	0.00766789	0
    Cl:	0.173281	0.173186	9.48969e-05	0
    Cl(f):	0.129175	0.122631	0.00654407	0
    Cl(r):	0.0441056	0.0505548	-0.00644918	0
    CmPitch:	0.0425348	0.0360382	0.00649662	0
    CmRoll:	-0.00972604	-0.00978121	5.51672e-05	0
    CmYaw:	0.00293829	0.00316249	-0.000224195	0
    Cs:	0.0111475	0.0112173	-6.98195e-05	0
    Cs(f):	0.00851203	0.00877113	-0.000259105	0
    Cs(r):	0.00263544	0.00244616	0.000189286	0

    writing force and moment coefficient files.

Time = 48

smoothSolver:  Solving for Ux, Initial residual = 0.00411807, Final residual = 0.000388015, No Iterations 5
smoothSolver:  Solving for Uy, Initial residual = 0.0274875, Final residual = 0.00224464, No Iterations 6
smoothSolver:  Solving for Uz, Initial residual = 0.0324992, Final residual = 0.00324874, No Iterations 5
GAMG:  Solving for p, Initial residual = 0.00031092, Final residual = 2.06332e-06, No Iterations 3
time step continuity errors : sum local = 0.000251736, global = -1.5425e-05, cumulative = 0.00075454
smoothSolver:  Solving for omega, Initial residual = 0.000136503, Final residual = 1.06588e-05, No Iterations 3
smoothSolver:  Solving for k, Initial residual = 0.00198199, Final residual = 0.000195716, No Iterations 3
ExecutionTime = 18.41 s  ClockTime = 18 s

forceCoeffs forceCoeffs1 write:
    Coefficient	Total	Pressure	Viscous	Internal
    Cd:	0.198613	0.183147	0.0154658	0
    Cd(f):	0.0888497	0.0810597	0.00778999	0
    Cd(r):	0.109763	0.102087	0.00767585	0
    Cl:	0.173674	0.173587	8.77415e-05	0
    Cl(f):	0.129456	0.122907	0.00654832	0
    Cl(r):	0.0442189	0.0506795	-0.00646058	0
    CmPitch:	0.0426183	0.0361138	0.00650445	0
    CmRoll:	-0.0104568	-0.0105138	5.70662e-05	0
    CmYaw:	0.00280663	0.00303273	-0.0002261	0
    Cs:	0.01244	0.0125078	-6.78604e-05	0
    Cs(f):	0.00902662	0.00928665	-0.00026003	0
    Cs(r):	0.00341335	0.00322118	0.00019217	0

    writing force and moment coefficient files.

Time = 49

smoothSolver:  Solving for Ux, Initial residual = 0.0038569, Final residual = 0.000369205, No Iterations 5
smoothSolver:  Solving for Uy, Initial residual = 0.0259504, Final residual = 0.00214924, No Iterations 6
smoothSolver:  Solving for Uz, Initial residual = 0.0307664, Final residual = 0.00210701, No Iterations 6
GAMG:  Solving for p, Initial residual = 0.000290845, Final residual = 1.94747e-06, No Iterations 3
time step continuity errors : sum local = 0.000237587, global = -8.03107e-06, cumulative = 0.000746509
smoothSolver:  Solving for omega, Initial residual = 0.000132966, Final residual = 1.03493e-05, No Iterations 3
smoothSolver:  Solving for k, Initial residual = 0.00196475, Final residual = 0.000191873, No Iterations 3
ExecutionTime = 18.78 s  ClockTime = 19 s

forceCoeffs forceCoeffs1 write:
    Coefficient	Total	Pressure	Viscous	Internal
    Cd:	0.198694	0.183222	0.0154719	0
    Cd(f):	0.0882604	0.0804647	0.00779571	0
    Cd(r):	0.110433	0.102757	0.00767618	0
    Cl:	0.174076	0.174001	7.45127e-05	0
    Cl(f):	0.129619	0.123075	0.00654443	0
    Cl(r):	0.0444564	0.0509264	-0.00646992	0
    CmPitch:	0.0425814	0.0360742	0.00650718	0
    CmRoll:	-0.0110864	-0.0111462	5.97676e-05	0
    CmYaw:	0.00281083	0.00303705	-0.000226221	0
    Cs:	0.013693	0.0137576	-6.4602e-05	0
    Cs(f):	0.00965731	0.00991583	-0.000258522	0
    Cs(r):	0.00403565	0.00384173	0.00019392	0

    writing force and moment coefficient files.

Time = 50

smoothSolver:  Solving for Ux, Initial residual = 0.00362047, Final residual = 0.000351269, No Iterations 5
smoothSolver:  Solving for Uy, Initial residual = 0.0244709, Final residual = 0.00206387, No Iterations 6
smoothSolver:  Solving for Uz, Initial residual = 0.0290953, Final residual = 0.00201065, No Iterations 6
GAMG:  Solving for p, Initial residual = 0.000272893, Final residual = 1.82577e-06, No Iterations 3
time step continuity errors : sum local = 0.000222729, global = -1.28616e-06, cumulative = 0.000745222
smoothSolver:  Solving for omega, Initial residual = 0.000128868, Final residual = 1.00955e-05, No Iterations 3
smoothSolver:  Solving for k, Initial residual = 0.0019462, Final residual = 0.000188989, No Iterations 3
ExecutionTime = 19.15 s  ClockTime = 19 s

forceCoeffs forceCoeffs1 write:
    Coefficient	Total	Pressure	Viscous	Internal
    Cd:	0.198728	0.183255	0.015473	0
    Cd(f):	0.0877397	0.0799419	0.00779787	0
    Cd(r):	0.110988	0.103313	0.00767516	0
    Cl:	0.174547	0.174487	6.08492e-05	0
    Cl(f):	0.129799	0.123262	0.00653718	0
    Cl(r):	0.0447485	0.0512248	-0.00647634	0
    CmPitch:	0.0425252	0.0360185	0.00650676	0
    CmRoll:	-0.0116242	-0.0116856	6.13511e-05	0
    CmYaw:	0.00296974	0.00319275	-0.000223012	0
    Cs:	0.0148601	0.0149166	-5.64268e-05	0
    Cs(f):	0.0103998	0.010651	-0.000251226	0
    Cs(r):	0.00446033	0.00426553	0.000194799	0

    writing force and moment coefficient files.

Time = 51

smoothSolver:  Solving for Ux, Initial residual = 0.00340096, Final residual = 0.000334372, No Iterations 5
smoothSolver:  Solving for Uy, Initial residual = 0.0233891, Final residual = 0.00198989, No Iterations 6
smoothSolver:  Solving for Uz, Initial residual = 0.0275695, Final residual = 0.00192324, No Iterations 6
GAMG:  Solving for p, Initial residual = 0.000256944, Final residual = 1.77903e-06, No Iterations 3
time step continuity errors : sum local = 0.000217015, global = 4.76826e-06, cumulative = 0.000749991
smoothSolver:  Solving for omega, Initial residual = 0.000125486, Final residual = 9.82349e-06, No Iterations 3
smoothSolver:  Solving for k, Initial residual = 0.0019331, Final residual = 0.000185979, No Iterations 3
ExecutionTime = 19.53 s  ClockTime = 19 s

forceCoeffs forceCoeffs1 write:
    Coefficient	Total	Pressure	Viscous	Internal
    Cd:	0.198706	0.18324	0.0154654	0
    Cd(f):	0.0873114	0.0795163	0.00779502	0
    Cd(r):	0.111394	0.103724	0.00767039	0
    Cl:	0.175054	0.175007	4.75376e-05	0
    Cl(f):	0.129996	0.123468	0.00652778	0
    Cl(r):	0.0450583	0.0515385	-0.00648024	0
    CmPitch:	0.0424688	0.0359648	0.00650401	0
    CmRoll:	-0.0120415	-0.0121038	6.23171e-05	0
    CmYaw:	0.00322307	0.00344406	-0.000220995	0
    Cs:	0.0158166	0.0158623	-4.5615e-05	0
    Cs(f):	0.0111314	0.0113752	-0.000243803	0
    Cs(r):	0.00468526	0.00448707	0.000198188	0

    writing force and moment coefficient files.

Time = 52

smoothSolver:  Solving for Ux, Initial residual = 0.0031889, Final residual = 0.000316808, No Iterations 5
smoothSolver:  Solving for Uy, Initial residual = 0.0221338, Final residual = 0.00190329, No Iterations 6
smoothSolver:  Solving for Uz, Initial residual = 0.0262035, Final residual = 0.0018434, No Iterations 6
GAMG:  Solving for p, Initial residual = 0.000242799, Final residual = 1.78823e-06, No Iterations 3
time step continuity errors : sum local = 0.000218125, global = 1.12682e-05, cumulative = 0.000761259
smoothSolver:  Solving for omega, Initial residual = 0.000122338, Final residual = 9.50237e-06, No Iterations 3
smoothSolver:  Solving for k, Initial residual = 0.00190536, Final residual = 0.000181485, No Iterations 3
ExecutionTime = 19.89 s  ClockTime = 20 s

forceCoeffs forceCoeffs1 write:
    Coefficient	Total	Pressure	Viscous	Internal
    Cd:	0.198685	0.183224	0.0154605	0
    Cd(f):	0.0870328	0.0792386	0.00779425	0
    Cd(r):	0.111652	0.103986	0.00766628	0
    Cl:	0.175652	0.175618	3.38981e-05	0
    Cl(f):	0.130309	0.12379	0.00651878	0
    Cl(r):	0.0453434	0.0518283	-0.00648488	0
    CmPitch:	0.0424828	0.0359809	0.00650183	0
    CmRoll:	-0.0123095	-0.0123735	6.39817e-05	0
    CmYaw:	0.0034897	0.00370754	-0.000217844	0
    Cs:	0.0164099	0.0164477	-3.78038e-05	0
    Cs(f):	0.0116946	0.0119314	-0.000236746	0
    Cs(r):	0.00471523	0.00451629	0.000198942	0

    writing force and moment coefficient files.

Time = 53

smoothSolver:  Solving for Ux, Initial residual = 0.00298222, Final residual = 0.000213413, No Iterations 6
smoothSolver:  Solving for Uy, Initial residual = 0.0212756, Final residual = 0.0018259, No Iterations 6
smoothSolver:  Solving for Uz, Initial residual = 0.0248821, Final residual = 0.00178728, No Iterations 6
GAMG:  Solving for p, Initial residual = 0.000228943, Final residual = 1.75504e-06, No Iterations 3
time step continuity errors : sum local = 0.000214066, global = 1.33282e-05, cumulative = 0.000774587
smoothSolver:  Solving for omega, Initial residual = 0.000118778, Final residual = 9.15318e-06, No Iterations 3
smoothSolver:  Solving for k, Initial residual = 0.00186128, Final residual = 0.000176194, No Iterations 3
ExecutionTime = 20.25 s  ClockTime = 20 s

forceCoeffs forceCoeffs1 write:
    Coefficient	Total	Pressure	Viscous	Internal
    Cd:	0.198558	0.183109	0.0154481	0
    Cd(f):	0.0868851	0.0790928	0.00779233	0
    Cd(r):	0.111672	0.104017	0.00765576	0
    Cl:	0.176377	0.176353	2.37964e-05	0
    Cl(f):	0.130591	0.124084	0.00650693	0
    Cl(r):	0.0457857	0.0522688	-0.00648314	0
[...]
    Coefficient	Total	Pressure	Viscous	Internal
    Cd:	0.196914	0.181679	0.0152347	0
    Cd(f):	0.0864614	0.0787584	0.00770303	0
    Cd(r):	0.110452	0.10292	0.0075317	0
    Cl:	0.181604	0.181549	5.50677e-05	0
    Cl(f):	0.128695	0.122203	0.00649264	0
    Cl(r):	0.0529082	0.0593458	-0.00643758	0
    CmPitch:	0.0378936	0.0314285	0.00646511	0
    CmRoll:	-0.0119953	-0.012081	8.56673e-05	0
    CmYaw:	0.00123651	0.0014625	-0.000225987	0
    Cs:	0.0162749	0.0163751	-0.000100265	0
    Cs(f):	0.00937394	0.00965006	-0.00027612	0
    Cs(r):	0.00690092	0.00672506	0.000175855	0

    writing force and moment coefficient files.

Time = 488

smoothSolver:  Solving for Ux, Initial residual = 0.000141702, Final residual = 1.18161e-05, No Iterations 6
smoothSolver:  Solving for Uy, Initial residual = 0.00267361, Final residual = 0.000231772, No Iterations 5
smoothSolver:  Solving for Uz, Initial residual = 0.00198984, Final residual = 0.000165137, No Iterations 5
GAMG:  Solving for p, Initial residual = 1.36805e-05, Final residual = 1.24436e-07, No Iterations 3
time step continuity errors : sum local = 1.51722e-05, global = 1.28302e-07, cumulative = 0.000964211
smoothSolver:  Solving for omega, Initial residual = 1.08794e-05, Final residual = 5.88001e-07, No Iterations 3
smoothSolver:  Solving for k, Initial residual = 8.31905e-05, Final residual = 6.25705e-06, No Iterations 3
ExecutionTime = 188.28 s  ClockTime = 188 s

forceCoeffs forceCoeffs1 write:
    Coefficient	Total	Pressure	Viscous	Internal
    Cd:	0.196911	0.181675	0.0152362	0
    Cd(f):	0.0864949	0.0787921	0.00770273	0
    Cd(r):	0.110416	0.102883	0.00753351	0
    Cl:	0.181584	0.181526	5.82682e-05	0
    Cl(f):	0.128676	0.122181	0.00649489	0
    Cl(r):	0.0529089	0.0593455	-0.00643662	0
    CmPitch:	0.0378833	0.0314176	0.00646575	0
    CmRoll:	-0.0119607	-0.0120453	8.46096e-05	0
    CmYaw:	0.00125662	0.00148151	-0.000224896	0
    Cs:	0.016177	0.0162747	-9.77074e-05	0
    Cs(f):	0.00934513	0.00961888	-0.000273749	0
    Cs(r):	0.0068319	0.00665586	0.000176042	0

    writing force and moment coefficient files.

Time = 489

smoothSolver:  Solving for Ux, Initial residual = 0.000142362, Final residual = 1.18227e-05, No Iterations 6
smoothSolver:  Solving for Uy, Initial residual = 0.00268643, Final residual = 0.000233908, No Iterations 5
smoothSolver:  Solving for Uz, Initial residual = 0.00199785, Final residual = 0.00016662, No Iterations 5
GAMG:  Solving for p, Initial residual = 1.38018e-05, Final residual = 1.23484e-07, No Iterations 3
time step continuity errors : sum local = 1.50562e-05, global = 5.91226e-08, cumulative = 0.00096427
smoothSolver:  Solving for omega, Initial residual = 1.08632e-05, Final residual = 5.96044e-07, No Iterations 3
smoothSolver:  Solving for k, Initial residual = 8.39502e-05, Final residual = 6.31219e-06, No Iterations 3
ExecutionTime = 188.64 s  ClockTime = 189 s

forceCoeffs forceCoeffs1 write:
    Coefficient	Total	Pressure	Viscous	Internal
    Cd:	0.196924	0.181688	0.0152359	0
    Cd(f):	0.0865196	0.0788153	0.00770429	0
    Cd(r):	0.110405	0.102873	0.00753165	0
    Cl:	0.181637	0.181578	5.9164e-05	0
    Cl(f):	0.128688	0.122191	0.00649686	0
    Cl(r):	0.0529494	0.0593871	-0.0064377	0
    CmPitch:	0.0378691	0.0314018	0.00646728	0
    CmRoll:	-0.0119426	-0.0120289	8.63202e-05	0
    CmYaw:	0.00125073	0.001475	-0.000224278	0
    Cs:	0.0161601	0.0162631	-0.000102973	0
    Cs(f):	0.0093308	0.00960656	-0.000275765	0
    Cs(r):	0.00682935	0.00665655	0.000172791	0

    writing force and moment coefficient files.

Time = 490

smoothSolver:  Solving for Ux, Initial residual = 0.000142503, Final residual = 1.18846e-05, No Iterations 6
smoothSolver:  Solving for Uy, Initial residual = 0.00268565, Final residual = 0.000233794, No Iterations 5
smoothSolver:  Solving for Uz, Initial residual = 0.00200181, Final residual = 0.000166748, No Iterations 5
GAMG:  Solving for p, Initial residual = 1.38506e-05, Final residual = 1.22564e-07, No Iterations 3
time step continuity errors : sum local = 1.4944e-05, global = 1.99257e-07, cumulative = 0.00096447
smoothSolver:  Solving for omega, Initial residual = 1.08791e-05, Final residual = 5.95077e-07, No Iterations 3
smoothSolver:  Solving for k, Initial residual = 8.47175e-05, Final residual = 6.35547e-06, No Iterations 3
ExecutionTime = 188.99 s  ClockTime = 189 s

forceCoeffs forceCoeffs1 write:
    Coefficient	Total	Pressure	Viscous	Internal
    Cd:	0.196951	0.181717	0.0152349	0
    Cd(f):	0.0865874	0.0788841	0.0077033	0
    Cd(r):	0.110364	0.102832	0.00753159	0
    Cl:	0.181573	0.18151	6.28854e-05	0
    Cl(f):	0.128643	0.122144	0.00649811	0
    Cl(r):	0.0529303	0.0593655	-0.00643523	0
    CmPitch:	0.0378562	0.0313895	0.00646667	0
    CmRoll:	-0.0118883	-0.0119742	8.58562e-05	0
    CmYaw:	0.0012863	0.00150937	-0.00022307	0
    Cs:	0.0160172	0.0161194	-0.000102166	0
    Cs(f):	0.0092949	0.00956906	-0.000274153	0
    Cs(r):	0.00672231	0.00655032	0.000171987	0

    writing force and moment coefficient files.

Time = 491

smoothSolver:  Solving for Ux, Initial residual = 0.00014317, Final residual = 1.19683e-05, No Iterations 6
smoothSolver:  Solving for Uy, Initial residual = 0.0026983, Final residual = 0.000236118, No Iterations 5
smoothSolver:  Solving for Uz, Initial residual = 0.00200804, Final residual = 0.000167907, No Iterations 5
GAMG:  Solving for p, Initial residual = 1.39432e-05, Final residual = 1.21256e-07, No Iterations 3
time step continuity errors : sum local = 1.47845e-05, global = 1.01784e-07, cumulative = 0.000964572
smoothSolver:  Solving for omega, Initial residual = 1.08972e-05, Final residual = 5.9554e-07, No Iterations 3
smoothSolver:  Solving for k, Initial residual = 8.50022e-05, Final residual = 6.38822e-06, No Iterations 3
ExecutionTime = 189.36 s  ClockTime = 189 s

forceCoeffs forceCoeffs1 write:
    Coefficient	Total	Pressure	Viscous	Internal
    Cd:	0.196955	0.181718	0.0152377	0
    Cd(f):	0.0866029	0.0788968	0.0077061	0
    Cd(r):	0.110352	0.102821	0.00753158	0
    Cl:	0.181554	0.181488	6.56675e-05	0
    Cl(f):	0.128593	0.12209	0.00650304	0
    Cl(r):	0.052961	0.0593984	-0.00643737	0
    CmPitch:	0.0378159	0.0313457	0.0064702	0
    CmRoll:	-0.0118748	-0.011962	8.72606e-05	0
    CmYaw:	0.00127501	0.00149784	-0.000222835	0
    Cs:	0.0160166	0.0161221	-0.000105488	0
    Cs(f):	0.00928332	0.0095589	-0.000275579	0
    Cs(r):	0.00673331	0.00656321	0.000170091	0

    writing force and moment coefficient files.

Time = 492

smoothSolver:  Solving for Ux, Initial residual = 0.000142941, Final residual = 1.19987e-05, No Iterations 6
smoothSolver:  Solving for Uy, Initial residual = 0.00269576, Final residual = 0.000235472, No Iterations 5
smoothSolver:  Solving for Uz, Initial residual = 0.00200667, Final residual = 0.000167875, No Iterations 5
GAMG:  Solving for p, Initial residual = 1.3979e-05, Final residual = 1.20437e-07, No Iterations 3
time step continuity errors : sum local = 1.46848e-05, global = 2.18887e-07, cumulative = 0.00096479
smoothSolver:  Solving for omega, Initial residual = 1.09445e-05, Final residual = 5.94647e-07, No Iterations 3
smoothSolver:  Solving for k, Initial residual = 8.52403e-05, Final residual = 6.40195e-06, No Iterations 3
ExecutionTime = 189.75 s  ClockTime = 190 s

forceCoeffs forceCoeffs1 write:
    Coefficient	Total	Pressure	Viscous	Internal
    Cd:	0.196971	0.181734	0.0152368	0
    Cd(f):	0.0866669	0.0789616	0.00770525	0
    Cd(r):	0.110304	0.102773	0.00753151	0
    Cl:	0.181463	0.181394	6.88861e-05	0
    Cl(f):	0.128536	0.122032	0.00650402	0
    Cl(r):	0.0529274	0.0593626	-0.00643513	0
    CmPitch:	0.0378043	0.0313347	0.00646958	0
    CmRoll:	-0.0118186	-0.0119054	8.68696e-05	0
    CmYaw:	0.00130864	0.00153032	-0.000221677	0
    Cs:	0.0158636	0.0159679	-0.000104323	0
    Cs(f):	0.00924044	0.00951428	-0.000273839	0
    Cs(r):	0.00662316	0.00645364	0.000169516	0

    writing force and moment coefficient files.

Time = 493

smoothSolver:  Solving for Ux, Initial residual = 0.000142962, Final residual = 1.19826e-05, No Iterations 6
smoothSolver:  Solving for Uy, Initial residual = 0.00270029, Final residual = 0.00023601, No Iterations 5
smoothSolver:  Solving for Uz, Initial residual = 0.00200648, Final residual = 0.000168538, No Iterations 5
GAMG:  Solving for p, Initial residual = 1.41154e-05, Final residual = 1.21311e-07, No Iterations 3
time step continuity errors : sum local = 1.47913e-05, global = 1.17282e-07, cumulative = 0.000964908
smoothSolver:  Solving for omega, Initial residual = 1.09609e-05, Final residual = 5.9526e-07, No Iterations 3
smoothSolver:  Solving for k, Initial residual = 8.51252e-05, Final residual = 6.40733e-06, No Iterations 3
ExecutionTime = 190.12 s  ClockTime = 190 s

forceCoeffs forceCoeffs1 write:
    Coefficient	Total	Pressure	Viscous	Internal
    Cd:	0.196999	0.181757	0.0152417	0
    Cd(f):	0.0867083	0.0789994	0.00770888	0
    Cd(r):	0.11029	0.102757	0.00753282	0
    Cl:	0.181426	0.181358	6.80631e-05	0
    Cl(f):	0.128494	0.121987	0.00650711	0
    Cl(r):	0.052932	0.059371	-0.00643905	0
    CmPitch:	0.0377812	0.0313081	0.00647308	0
    CmRoll:	-0.011791	-0.011879	8.8031e-05	0
    CmYaw:	0.00130474	0.00152668	-0.000221943	0
    Cs:	0.0158287	0.0159359	-0.000107297	0
    Cs(f):	0.00921906	0.00949465	-0.000275592	0
    Cs(r):	0.00660959	0.0064413	0.000168295	0

    writing force and moment coefficient files.

Time = 494

smoothSolver:  Solving for Ux, Initial residual = 0.000143039, Final residual = 1.20847e-05, No Iterations 6
smoothSolver:  Solving for Uy, Initial residual = 0.00269669, Final residual = 0.000235771, No Iterations 5
smoothSolver:  Solving for Uz, Initial residual = 0.00200953, Final residual = 0.000169639, No Iterations 5
GAMG:  Solving for p, Initial residual = 1.41102e-05, Final residual = 1.19827e-07, No Iterations 3
time step continuity errors : sum local = 1.46103e-05, global = 2.21567e-07, cumulative = 0.000965129
smoothSolver:  Solving for omega, Initial residual = 1.10309e-05, Final residual = 5.88338e-07, No Iterations 3
smoothSolver:  Solving for k, Initial residual = 8.48607e-05, Final residual = 6.40117e-06, No Iterations 3
ExecutionTime = 190.49 s  ClockTime = 190 s

forceCoeffs forceCoeffs1 write:
    Coefficient	Total	Pressure	Viscous	Internal
    Cd:	0.197027	0.181785	0.0152422	0
    Cd(f):	0.0867942	0.0790851	0.00770905	0
    Cd(r):	0.110233	0.1027	0.0075331	0
    Cl:	0.181314	0.181241	7.28699e-05	0
    Cl(f):	0.128434	0.121924	0.00651008	0
    Cl(r):	0.05288	0.0593172	-0.00643721	0
    CmPitch:	0.0377769	0.0313033	0.00647365	0
    CmRoll:	-0.0117194	-0.0118074	8.79728e-05	0
    CmYaw:	0.00132863	0.00154988	-0.000221253	0
    Cs:	0.0156445	0.0157513	-0.000106853	0
    Cs(f):	0.00915086	0.00942554	-0.000274679	0
    Cs(r):	0.00649361	0.00632579	0.000167826	0

    writing force and moment coefficient files.

Time = 495

smoothSolver:  Solving for Ux, Initial residual = 0.000143338, Final residual = 1.21497e-05, No Iterations 6
smoothSolver:  Solving for Uy, Initial residual = 0.00270027, Final residual = 0.000236402, No Iterations 5
smoothSolver:  Solving for Uz, Initial residual = 0.00201178, Final residual = 0.000170278, No Iterations 5
GAMG:  Solving for p, Initial residual = 1.41822e-05, Final residual = 1.24289e-07, No Iterations 3
time step continuity errors : sum local = 1.51544e-05, global = 1.03174e-07, cumulative = 0.000965232
smoothSolver:  Solving for omega, Initial residual = 1.09305e-05, Final residual = 5.93305e-07, No Iterations 3
smoothSolver:  Solving for k, Initial residual = 8.43655e-05, Final residual = 6.4254e-06, No Iterations 3
ExecutionTime = 190.86 s  ClockTime = 191 s

forceCoeffs forceCoeffs1 write:
    Coefficient	Total	Pressure	Viscous	Internal
    Cd:	0.197035	0.181792	0.0152428	0
    Cd(f):	0.0868472	0.0791362	0.00771095	0
    Cd(r):	0.110188	0.102656	0.00753189	0
    Cl:	0.18125	0.181177	7.26914e-05	0
    Cl(f):	0.128362	0.121849	0.00651223	0
    Cl(r):	0.0528878	0.0593274	-0.00643954	0
    CmPitch:	0.0377369	0.0312611	0.00647588	0
    CmRoll:	-0.0116705	-0.01176	8.95253e-05	0
    CmYaw:	0.00131396	0.00153529	-0.000221332	0
    Cs:	0.01556	0.0156706	-0.000110674	0
    Cs(f):	0.00909394	0.00937061	-0.000276669	0
    Cs(r):	0.00646602	0.00630002	0.000165995	0

    writing force and moment coefficient files.

Time = 496

smoothSolver:  Solving for Ux, Initial residual = 0.000143431, Final residual = 1.22429e-05, No Iterations 6
smoothSolver:  Solving for Uy, Initial residual = 0.00270123, Final residual = 0.000236645, No Iterations 5
smoothSolver:  Solving for Uz, Initial residual = 0.00200996, Final residual = 0.000170846, No Iterations 5
GAMG:  Solving for p, Initial residual = 1.42356e-05, Final residual = 1.25252e-07, No Iterations 3
time step continuity errors : sum local = 1.52719e-05, global = 2.05271e-07, cumulative = 0.000965438
smoothSolver:  Solving for omega, Initial residual = 1.09926e-05, Final residual = 5.96388e-07, No Iterations 3
smoothSolver:  Solving for k, Initial residual = 8.41691e-05, Final residual = 6.44447e-06, No Iterations 3
ExecutionTime = 191.24 s  ClockTime = 191 s

forceCoeffs forceCoeffs1 write:
    Coefficient	Total	Pressure	Viscous	Internal
    Cd:	0.197056	0.181812	0.0152434	0
    Cd(f):	0.0869451	0.0792338	0.00771134	0
    Cd(r):	0.110111	0.102579	0.00753204	0
    Cl:	0.181103	0.181026	7.70292e-05	0
    Cl(f):	0.12827	0.121755	0.00651415	0
    Cl(r):	0.0528338	0.0592709	-0.00643712	0
    CmPitch:	0.0377179	0.0312423	0.00647563	0
    CmRoll:	-0.0115827	-0.0116724	8.96493e-05	0
    CmYaw:	0.00133174	0.00155227	-0.00022053	0
    Cs:	0.0153385	0.0154492	-0.000110707	0
    Cs(f):	0.00900096	0.00927685	-0.000275883	0
    Cs(r):	0.00633749	0.00617231	0.000165176	0

    writing force and moment coefficient files.

Time = 497

smoothSolver:  Solving for Ux, Initial residual = 0.000143921, Final residual = 1.23089e-05, No Iterations 6
smoothSolver:  Solving for Uy, Initial residual = 0.0027028, Final residual = 0.000237079, No Iterations 5
smoothSolver:  Solving for Uz, Initial residual = 0.00200971, Final residual = 0.000171047, No Iterations 5
GAMG:  Solving for p, Initial residual = 1.43502e-05, Final residual = 1.31484e-07, No Iterations 3
time step continuity errors : sum local = 1.60318e-05, global = 8.38238e-08, cumulative = 0.000965522
smoothSolver:  Solving for omega, Initial residual = 1.11018e-05, Final residual = 6.03859e-07, No Iterations 3
smoothSolver:  Solving for k, Initial residual = 8.40461e-05, Final residual = 6.47448e-06, No Iterations 3
ExecutionTime = 191.61 s  ClockTime = 192 s

forceCoeffs forceCoeffs1 write:
    Coefficient	Total	Pressure	Viscous	Internal
    Cd:	0.197075	0.181829	0.0152458	0
    Cd(f):	0.0870169	0.079303	0.00771388	0
    Cd(r):	0.110058	0.102526	0.00753194	0
    Cl:	0.18106	0.180984	7.67338e-05	0
    Cl(f):	0.128222	0.121705	0.00651732	0
    Cl(r):	0.052838	0.0592786	-0.00644059	0
    CmPitch:	0.0376921	0.0312132	0.00647896	0
    CmRoll:	-0.0115205	-0.0116115	9.09725e-05	0
    CmYaw:	0.00130981	0.0015312	-0.000221393	0
    Cs:	0.0152223	0.0153362	-0.000113952	0
    Cs(f):	0.00892094	0.00919931	-0.000278369	0
    Cs(r):	0.00630133	0.00613691	0.000164417	0

    writing force and moment coefficient files.

Time = 498

smoothSolver:  Solving for Ux, Initial residual = 0.000144192, Final residual = 1.23885e-05, No Iterations 6
smoothSolver:  Solving for Uy, Initial residual = 0.00270378, Final residual = 0.000237275, No Iterations 5
smoothSolver:  Solving for Uz, Initial residual = 0.00201255, Final residual = 0.000172031, No Iterations 5
GAMG:  Solving for p, Initial residual = 1.43791e-05, Final residual = 1.34042e-07, No Iterations 3
time step continuity errors : sum local = 1.63437e-05, global = 1.89442e-07, cumulative = 0.000965711
smoothSolver:  Solving for omega, Initial residual = 1.11873e-05, Final residual = 6.14082e-07, No Iterations 3
smoothSolver:  Solving for k, Initial residual = 8.39893e-05, Final residual = 6.51285e-06, No Iterations 3
ExecutionTime = 191.98 s  ClockTime = 192 s

forceCoeffs forceCoeffs1 write:
    Coefficient	Total	Pressure	Viscous	Internal
    Cd:	0.19708	0.181834	0.0152454	0
    Cd(f):	0.0871094	0.0793959	0.00771352	0
    Cd(r):	0.10997	0.102438	0.00753191	0
    Cl:	0.180886	0.180803	8.23935e-05	0
    Cl(f):	0.128101	0.12158	0.00652006	0
    Cl(r):	0.0527852	0.0592229	-0.00643766	0
    CmPitch:	0.0376576	0.0311788	0.00647886	0
    CmRoll:	-0.0114304	-0.0115212	9.08026e-05	0
    CmYaw:	0.00131006	0.00153123	-0.000221172	0
    Cs:	0.0150053	0.0151188	-0.000113429	0
    Cs(f):	0.00881273	0.00909061	-0.000277887	0
    Cs(r):	0.00619261	0.00602815	0.000164458	0

    writing force and moment coefficient files.

Time = 499

smoothSolver:  Solving for Ux, Initial residual = 0.000144967, Final residual = 1.24811e-05, No Iterations 6
smoothSolver:  Solving for Uy, Initial residual = 0.00271021, Final residual = 0.000238087, No Iterations 5
smoothSolver:  Solving for Uz, Initial residual = 0.00201663, Final residual = 0.000171945, No Iterations 5
GAMG:  Solving for p, Initial residual = 1.44956e-05, Final residual = 1.40663e-07, No Iterations 3
time step continuity errors : sum local = 1.7151e-05, global = 6.66326e-08, cumulative = 0.000965778
smoothSolver:  Solving for omega, Initial residual = 1.13745e-05, Final residual = 6.29308e-07, No Iterations 3
smoothSolver:  Solving for k, Initial residual = 8.45081e-05, Final residual = 6.57618e-06, No Iterations 3
ExecutionTime = 192.36 s  ClockTime = 192 s

forceCoeffs forceCoeffs1 write:
    Coefficient	Total	Pressure	Viscous	Internal
    Cd:	0.197093	0.18184	0.0152528	0
    Cd(f):	0.0871852	0.0794666	0.00771852	0
    Cd(r):	0.109908	0.102374	0.00753427	0
    Cl:	0.180833	0.180753	8.00363e-05	0
    Cl(f):	0.128037	0.121513	0.0065234	0
    Cl(r):	0.0527967	0.0592401	-0.00644337	0
    CmPitch:	0.03762	0.0311366	0.00648339	0
    CmRoll:	-0.0113615	-0.0114536	9.21287e-05	0
    CmYaw:	0.00127927	0.00150108	-0.000221807	0
    Cs:	0.0148836	0.0150001	-0.000116483	0
    Cs(f):	0.00872109	0.00900114	-0.000280049	0
    Cs(r):	0.00616255	0.00599898	0.000163565	0

    writing force and moment coefficient files.

Time = 500

smoothSolver:  Solving for Ux, Initial residual = 0.000145664, Final residual = 1.25588e-05, No Iterations 6
smoothSolver:  Solving for Uy, Initial residual = 0.0027172, Final residual = 0.000239278, No Iterations 5
smoothSolver:  Solving for Uz, Initial residual = 0.00202711, Final residual = 0.000173737, No Iterations 5
GAMG:  Solving for p, Initial residual = 1.45526e-05, Final residual = 1.41699e-07, No Iterations 3
time step continuity errors : sum local = 1.72774e-05, global = 1.50036e-07, cumulative = 0.000965928
smoothSolver:  Solving for omega, Initial residual = 1.16751e-05, Final residual = 6.41714e-07, No Iterations 3
smoothSolver:  Solving for k, Initial residual = 8.54824e-05, Final residual = 6.64222e-06, No Iterations 3
ExecutionTime = 192.73 s  ClockTime = 193 s

streamLine streamLines write:
    seeded 20 particles
    Tracks:20
    Total samples:18743
nearWallFields near write:
    Sampling fields to 500
    Writing sampled fields to 500
wallBoundedStreamLine wallBoundedStreamLines write:
wallBoundedStreamLine : seeded 19996 particles.
    Tracks:19996
    Total samples:443609
forceCoeffs forceCoeffs1 write:
    Coefficient	Total	Pressure	Viscous	Internal
    Cd:	0.19713	0.181875	0.0152542	0
    Cd(f):	0.0872943	0.0795753	0.00771896	0
    Cd(r):	0.109835	0.1023	0.00753525	0
    Cl:	0.180702	0.180618	8.42903e-05	0
    Cl(f):	0.127969	0.121443	0.00652629	0
    Cl(r):	0.052733	0.059175	-0.006442	0
    CmPitch:	0.0376179	0.0311338	0.00648414	0
    CmRoll:	-0.0112705	-0.0113623	9.18559e-05	0
    CmYaw:	0.00128013	0.00150184	-0.000221715	0
    Cs:	0.0146769	0.0147924	-0.000115459	0
    Cs(f):	0.00861857	0.00889802	-0.000279445	0
    Cs(r):	0.00605832	0.00589433	0.000163986	0

    writing force and moment coefficient files.

ensightWrite ensightWrite write: ( k omega p U )
End

Finalising parallel run
