/*---------------------------------------------------------------------------*\
| =========                 |                                                 |
| \\      /  F ield         | OpenFOAM: The Open Source CFD Toolbox           |
|  \\    /   O peration     | Version:  2306                                  |
|   \\  /    A nd           | Website:  www.openfoam.com                      |
|    \\/     M anipulation  |                                                 |
\*---------------------------------------------------------------------------*/
Build  : _fbf00d6b-20230626 OPENFOAM=2306 version=2306
Arch   : "LSB;label=32;scalar=64"
Exec   : simpleFoam -parallel
Date   : Mar 20 2024
Time   : 17:27:54
Host   : LegionSlim
PID    : 650547
I/O    : uncollated
WARNING: running without decomposeParDict "system/decomposeParDict"
Case   : /home/adrian/run/TFG/TFG_FILES/aeroDynamicSimulations/motorBike
nProcs : 8
Hosts  :
(
    (LegionSlim 8)
)
Pstream initialized with:
    floatTransfer      : false
    nProcsSimpleSum    : 0
    nonBlockingExchange: 0 (tuning: 0)
    exchange algorithm : -1
    commsType          : nonBlocking
    polling iterations : 0
trapFpe: Floating point exception trapping enabled (FOAM_SIGFPE).
fileModificationChecking : Monitoring run-time modified files using timeStampMaster (fileModificationSkew 5, maxFileModificationPolls 20)
allowSystemOperations : Allowing user-supplied system call operations

// * * * * * * * * * * * * * * * * * * * * * * * * * * * * * * * * * * * * * //
Create time

Create mesh for time = 2000


SIMPLE: no convergence criteria found. Calculations will run for 3000 steps.

Reading field p

Reading field U

Reading/calculating face flux field phi

Selecting incompressible transport model Newtonian
Selecting turbulence model type RAS
Selecting RAS turbulence model kOmegaSST
Selecting patchDistMethod meshWave
RAS
{
    RASModel        kOmegaSST;
    turbulence      on;
    printCoeffs     on;
    alphaK1         0.85;
    alphaK2         1;
    alphaOmega1     0.5;
    alphaOmega2     0.856;
    gamma1          0.555556;
    gamma2          0.44;
    beta1           0.075;
    beta2           0.0828;
    betaStar        0.09;
    a1              0.31;
    b1              1;
    c1              10;
    F3              false;
    decayControl    false;
    kInf            0;
    omegaInf        0;
}

No MRF models present

Creating finite volume options from "system/fvOptions"

No finite volume options present

Starting time loop

streamLine streamLines:
    Employing velocity field U
    automatic track length specified through number of sub cycles : 5

nearWallFields near: Sampling 1 fields
wallBoundedStreamLine wallBoundedStreamLines:
    Employing velocity field UNear
Sampled surface:
    yNormal -> vtk
        sampledCuttingPlane: yNormal : plane:(0 1 0) (0 0 0) offsets:(0)

forceCoeffs forceCoeffs1:
    rho: rhoInf
    Freestream density (rhoInf) set to 1
    Not including porosity effects
    magUInf: 20
    lRef   : 1.42
    Aref   : 0.75
    rhoInf : 1
    Selecting all coefficients
    - Drag force: Cd
    - Drag force front: Cd(f)
    - Drag force rear: Cd(r)
    - Lift force: Cl
    - Lift force front: Cl(f)
    - Lift force rear: Cl(r)
    - Pitch moment: CmPitch
    - Roll moment: CmRoll
    - Yaw moment: CmYaw
    - Side force: Cs
    - Side force front: Cs(f)
    - Side force rear: Cs(r)


Time = 2001

DILUPBiCG:  Solving for Ux, Initial residual = 0.00028434, Final residual = 1.15001e-06, No Iterations 4
DILUPBiCG:  Solving for Uy, Initial residual = 0.00531059, Final residual = 0.000363094, No Iterations 2
DILUPBiCG:  Solving for Uz, Initial residual = 0.00483316, Final residual = 0.000285139, No Iterations 2
DICPCG:  Solving for p, Initial residual = 0.00395212, Final residual = 0.000376985, No Iterations 7
time step continuity errors : sum local = 0.000206442, global = 4.6278e-07, cumulative = -0.00415266
smoothSolver:  Solving for omega, Initial residual = 8.74959e-05, Final residual = 5.04282e-06, No Iterations 3
bounding omega, min: -103.212 max: 1.38506e+06 average: 687.868
smoothSolver:  Solving for k, Initial residual = 0.00131105, Final residual = 9.48504e-05, No Iterations 3
ExecutionTime = 0.92 s  ClockTime = 1 s

forceCoeffs forceCoeffs1 write:
    Coefficient	Total	Pressure	Viscous	Internal
    Cd:	0.421234	0.405806	0.0154282	0
    Cd(f):	0.209796	0.201935	0.00786021	0
    Cd(r):	0.211439	0.203871	0.00756796	0
    Cl:	0.0837026	0.0837868	-8.42766e-05	0
    Cl(f):	0.201528	0.194866	0.00666261	0
    Cl(r):	-0.117826	-0.111079	-0.00674688	0
    CmPitch:	0.159677	0.152972	0.00670474	0
    CmRoll:	-0.000821536	-0.000967658	0.000146121	0
    CmYaw:	-0.0050047	-0.00485147	-0.000153223	0
    Cs:	-0.00307166	-0.00275359	-0.000318064	0
    Cs(f):	-0.00654052	-0.00622827	-0.000312255	0
    Cs(r):	0.00346887	0.00347467	-5.8087e-06	0

    writing force and moment coefficient files.

Time = 2002

DILUPBiCG:  Solving for Ux, Initial residual = 0.00028136, Final residual = 2.39608e-05, No Iterations 2
DILUPBiCG:  Solving for Uy, Initial residual = 0.00521446, Final residual = 0.000325244, No Iterations 2
DILUPBiCG:  Solving for Uz, Initial residual = 0.00479276, Final residual = 0.000265817, No Iterations 3
DICPCG:  Solving for p, Initial residual = 0.00385333, Final residual = 0.000336719, No Iterations 10
time step continuity errors : sum local = 0.000184293, global = 1.7677e-06, cumulative = -0.00415089
smoothSolver:  Solving for omega, Initial residual = 8.7886e-05, Final residual = 5.03388e-06, No Iterations 3
bounding omega, min: -101.9 max: 1.38506e+06 average: 687.742
smoothSolver:  Solving for k, Initial residual = 0.00131992, Final residual = 9.50543e-05, No Iterations 3
ExecutionTime = 1.29 s  ClockTime = 1 s

forceCoeffs forceCoeffs1 write:
    Coefficient	Total	Pressure	Viscous	Internal
    Cd:	0.421742	0.406318	0.0154242	0
    Cd(f):	0.210141	0.202284	0.00785777	0
    Cd(r):	0.211601	0.204034	0.00756641	0
    Cl:	0.0839325	0.0840163	-8.37538e-05	0
    Cl(f):	0.202596	0.195936	0.00665955	0
    Cl(r):	-0.118663	-0.11192	-0.0067433	0
    CmPitch:	0.16063	0.153928	0.00670143	0
    CmRoll:	-0.000729658	-0.000875335	0.000145677	0
    CmYaw:	-0.00542054	-0.00526465	-0.000155884	0
    Cs:	-0.00380181	-0.0034849	-0.00031691	0
    Cs(f):	-0.00732144	-0.00700711	-0.000314339	0
    Cs(r):	0.00351963	0.0035222	-2.57121e-06	0

    writing force and moment coefficient files.

Time = 2003

DILUPBiCG:  Solving for Ux, Initial residual = 0.000281737, Final residual = 2.0906e-05, No Iterations 2
DILUPBiCG:  Solving for Uy, Initial residual = 0.00528834, Final residual = 0.000318865, No Iterations 2
DILUPBiCG:  Solving for Uz, Initial residual = 0.00485631, Final residual = 0.00039605, No Iterations 2
DICPCG:  Solving for p, Initial residual = 0.0039107, Final residual = 0.000362764, No Iterations 10
time step continuity errors : sum local = 0.000198363, global = 1.51792e-06, cumulative = -0.00414937
smoothSolver:  Solving for omega, Initial residual = 8.68811e-05, Final residual = 4.98837e-06, No Iterations 3
bounding omega, min: -99.3037 max: 1.38506e+06 average: 687.66
smoothSolver:  Solving for k, Initial residual = 0.00132267, Final residual = 9.57961e-05, No Iterations 3
ExecutionTime = 1.67 s  ClockTime = 1 s

forceCoeffs forceCoeffs1 write:
    Coefficient	Total	Pressure	Viscous	Internal
    Cd:	0.422147	0.406729	0.0154177	0
    Cd(f):	0.210519	0.202665	0.00785416	0
    Cd(r):	0.211627	0.204064	0.00756358	0
    Cl:	0.0839491	0.0840314	-8.22971e-05	0
    Cl(f):	0.203417	0.196761	0.00665541	0
    Cl(r):	-0.119468	-0.11273	-0.00673771	0
    CmPitch:	0.161442	0.154746	0.00669656	0
    CmRoll:	-0.000553903	-0.000699191	0.000145288	0
    CmYaw:	-0.00581027	-0.00565186	-0.000158412	0
    Cs:	-0.00509755	-0.00477954	-0.000318013	0
    Cs(f):	-0.00835904	-0.00804163	-0.000317418	0
    Cs(r):	0.00326149	0.00326208	-5.94768e-07	0

    writing force and moment coefficient files.

Time = 2004

DILUPBiCG:  Solving for Ux, Initial residual = 0.000281321, Final residual = 1.9659e-05, No Iterations 2
DILUPBiCG:  Solving for Uy, Initial residual = 0.00523105, Final residual = 0.000214801, No Iterations 3
DILUPBiCG:  Solving for Uz, Initial residual = 0.00469717, Final residual = 0.000435694, No Iterations 2
DICPCG:  Solving for p, Initial residual = 0.00390257, Final residual = 0.000380815, No Iterations 9
time step continuity errors : sum local = 0.000208036, global = -7.4483e-08, cumulative = -0.00414945
smoothSolver:  Solving for omega, Initial residual = 8.68381e-05, Final residual = 4.96337e-06, No Iterations 3
bounding omega, min: -100.471 max: 1.38506e+06 average: 687.627
smoothSolver:  Solving for k, Initial residual = 0.00132668, Final residual = 9.64074e-05, No Iterations 3
ExecutionTime = 2.04 s  ClockTime = 2 s

forceCoeffs forceCoeffs1 write:
    Coefficient	Total	Pressure	Viscous	Internal
    Cd:	0.422526	0.407117	0.0154091	0
    Cd(f):	0.210908	0.203059	0.00784837	0
    Cd(r):	0.211618	0.204057	0.00756074	0
    Cl:	0.0834873	0.0835695	-8.22209e-05	0
    Cl(f):	0.203921	0.197272	0.00664944	0
    Cl(r):	-0.120434	-0.113702	-0.00673166	0
    CmPitch:	0.162177	0.155487	0.00669055	0
    CmRoll:	-0.00035513	-0.000498941	0.000143812	0
    CmYaw:	-0.00599935	-0.0058379	-0.000161446	0
    Cs:	-0.00650705	-0.00618885	-0.000318206	0
    Cs(f):	-0.00925288	-0.00893233	-0.000320549	0
    Cs(r):	0.00274582	0.00274348	2.34291e-06	0

    writing force and moment coefficient files.

Time = 2005

DILUPBiCG:  Solving for Ux, Initial residual = 0.00028027, Final residual = 1.97104e-05, No Iterations 2
DILUPBiCG:  Solving for Uy, Initial residual = 0.00513095, Final residual = 1.92214e-05, No Iterations 4
DILUPBiCG:  Solving for Uz, Initial residual = 0.00461357, Final residual = 6.26176e-05, No Iterations 3
DICPCG:  Solving for p, Initial residual = 0.00382303, Final residual = 0.000357585, No Iterations 12
time step continuity errors : sum local = 0.000195194, global = -2.08356e-06, cumulative = -0.00415153
smoothSolver:  Solving for omega, Initial residual = 8.68604e-05, Final residual = 4.95798e-06, No Iterations 3
bounding omega, min: -104.537 max: 1.38506e+06 average: 687.668
smoothSolver:  Solving for k, Initial residual = 0.0013337, Final residual = 9.72972e-05, No Iterations 3
ExecutionTime = 2.43 s  ClockTime = 2 s

forceCoeffs forceCoeffs1 write:
    Coefficient	Total	Pressure	Viscous	Internal
    Cd:	0.422965	0.407566	0.0153993	0
    Cd(f):	0.211515	0.203672	0.00784282	0
    Cd(r):	0.21145	0.203893	0.00755648	0
    Cl:	0.0823928	0.0824771	-8.42961e-05	0
    Cl(f):	0.204305	0.197663	0.00664199	0
    Cl(r):	-0.121912	-0.115186	-0.00672629	0
    CmPitch:	0.163109	0.156424	0.00668414	0
    CmRoll:	3.28026e-05	-0.000110365	0.000143167	0
    CmYaw:	-0.00633887	-0.00617414	-0.000164725	0
    Cs:	-0.00877671	-0.00845478	-0.000321934	0
    Cs(f):	-0.0107272	-0.0104015	-0.000325692	0
    Cs(r):	0.00195051	0.00194675	3.75808e-06	0

    writing force and moment coefficient files.

Time = 2006

DILUPBiCG:  Solving for Ux, Initial residual = 0.000283435, Final residual = 2.00359e-05, No Iterations 2
DILUPBiCG:  Solving for Uy, Initial residual = 0.00516188, Final residual = 0.000361835, No Iterations 2
DILUPBiCG:  Solving for Uz, Initial residual = 0.0047051, Final residual = 6.08054e-05, No Iterations 3
DICPCG:  Solving for p, Initial residual = 0.00384075, Final residual = 0.000371088, No Iterations 8
time step continuity errors : sum local = 0.000202423, global = -5.86862e-06, cumulative = -0.0041574
smoothSolver:  Solving for omega, Initial residual = 8.7958e-05, Final residual = 4.97064e-06, No Iterations 3
bounding omega, min: -107.692 max: 1.38506e+06 average: 687.679
smoothSolver:  Solving for k, Initial residual = 0.00134454, Final residual = 9.77534e-05, No Iterations 3
ExecutionTime = 2.81 s  ClockTime = 2 s

forceCoeffs forceCoeffs1 write:
    Coefficient	Total	Pressure	Viscous	Internal
    Cd:	0.423365	0.407976	0.0153892	0
    Cd(f):	0.211863	0.204026	0.00783653	0
    Cd(r):	0.211503	0.20395	0.00755264	0
    Cl:	0.0817473	0.0818346	-8.72925e-05	0
    Cl(f):	0.204395	0.197761	0.00663359	0
    Cl(r):	-0.122647	-0.115926	-0.00672089	0
    CmPitch:	0.163521	0.156844	0.00667724	0
    CmRoll:	0.000179991	3.80473e-05	0.000141944	0
    CmYaw:	-0.00627556	-0.00610843	-0.000167125	0
    Cs:	-0.00964868	-0.00932452	-0.000324166	0
    Cs(f):	-0.0110999	-0.0107707	-0.000329208	0
    Cs(r):	0.00145122	0.00144618	5.04202e-06	0

    writing force and moment coefficient files.

Time = 2007

DILUPBiCG:  Solving for Ux, Initial residual = 0.000283073, Final residual = 2.04004e-05, No Iterations 2
DILUPBiCG:  Solving for Uy, Initial residual = 0.00501535, Final residual = 0.000460488, No Iterations 2
DILUPBiCG:  Solving for Uz, Initial residual = 0.0047059, Final residual = 6.06755e-05, No Iterations 3
DICPCG:  Solving for p, Initial residual = 0.00381722, Final residual = 0.000368988, No Iterations 11
time step continuity errors : sum local = 0.000201214, global = -8.50388e-06, cumulative = -0.0041659
smoothSolver:  Solving for omega, Initial residual = 8.86837e-05, Final residual = 4.96305e-06, No Iterations 3
bounding omega, min: -110.82 max: 1.38506e+06 average: 687.701
smoothSolver:  Solving for k, Initial residual = 0.00135865, Final residual = 9.77958e-05, No Iterations 3
ExecutionTime = 3.19 s  ClockTime = 3 s

forceCoeffs forceCoeffs1 write:
    Coefficient	Total	Pressure	Viscous	Internal
    Cd:	0.423938	0.408559	0.0153789	0
    Cd(f):	0.212339	0.204508	0.00783067	0
    Cd(r):	0.2116	0.204051	0.00754828	0
    Cl:	0.0803531	0.0804425	-8.94392e-05	0
    Cl(f):	0.204236	0.197611	0.00662545	0
    Cl(r):	-0.123883	-0.117168	-0.00671489	0
    CmPitch:	0.164059	0.157389	0.00667017	0
    CmRoll:	0.000369386	0.000228192	0.000141194	0
    CmYaw:	-0.00637824	-0.00620984	-0.000168408	0
    Cs:	-0.0106232	-0.0102961	-0.000327093	0
    Cs(f):	-0.0116898	-0.0113579	-0.000331955	0
    Cs(r):	0.00106664	0.00106178	4.86175e-06	0

    writing force and moment coefficient files.

Time = 2008

DILUPBiCG:  Solving for Ux, Initial residual = 0.000290148, Final residual = 2.17213e-05, No Iterations 2
DILUPBiCG:  Solving for Uy, Initial residual = 0.00521855, Final residual = 6.95289e-05, No Iterations 3
DILUPBiCG:  Solving for Uz, Initial residual = 0.00492168, Final residual = 7.31255e-05, No Iterations 3
DICPCG:  Solving for p, Initial residual = 0.00390375, Final residual = 0.000383463, No Iterations 10
time step continuity errors : sum local = 0.000209078, global = -1.14179e-05, cumulative = -0.00417732
smoothSolver:  Solving for omega, Initial residual = 8.95849e-05, Final residual = 4.9894e-06, No Iterations 3
bounding omega, min: -113.332 max: 1.38506e+06 average: 687.709
smoothSolver:  Solving for k, Initial residual = 0.00137538, Final residual = 9.78355e-05, No Iterations 3
ExecutionTime = 3.59 s  ClockTime = 3 s

forceCoeffs forceCoeffs1 write:
    Coefficient	Total	Pressure	Viscous	Internal
    Cd:	0.424277	0.40891	0.0153679	0
    Cd(f):	0.212543	0.20472	0.00782334	0
    Cd(r):	0.211734	0.204189	0.0075446	0
    Cl:	0.0792436	0.0793343	-9.07337e-05	0
    Cl(f):	0.203869	0.197251	0.00661816	0
    Cl(r):	-0.124625	-0.117917	-0.0067089	0
    CmPitch:	0.164247	0.157584	0.00666353	0
    CmRoll:	0.000404667	0.000265293	0.000139374	0
    CmYaw:	-0.00632516	-0.00615705	-0.000168105	0
    Cs:	-0.0106479	-0.0103195	-0.000328434	0
    Cs(f):	-0.0116491	-0.0113168	-0.000332322	0
    Cs(r):	0.00100121	0.000997325	3.88732e-06	0

    writing force and moment coefficient files.

Time = 2009

DILUPBiCG:  Solving for Ux, Initial residual = 0.000291629, Final residual = 2.33397e-05, No Iterations 2
DILUPBiCG:  Solving for Uy, Initial residual = 0.00522476, Final residual = 7.05875e-05, No Iterations 3
DILUPBiCG:  Solving for Uz, Initial residual = 0.00495884, Final residual = 0.000114323, No Iterations 3
DICPCG:  Solving for p, Initial residual = 0.0039494, Final residual = 0.000371321, No Iterations 13
time step continuity errors : sum local = 0.000202471, global = -1.24745e-05, cumulative = -0.00418979
smoothSolver:  Solving for omega, Initial residual = 9.00435e-05, Final residual = 5.01848e-06, No Iterations 3
bounding omega, min: -115.673 max: 1.38506e+06 average: 687.766
smoothSolver:  Solving for k, Initial residual = 0.00138315, Final residual = 9.77552e-05, No Iterations 3
ExecutionTime = 3.99 s  ClockTime = 4 s

forceCoeffs forceCoeffs1 write:
    Coefficient	Total	Pressure	Viscous	Internal
    Cd:	0.424871	0.409511	0.01536	0
    Cd(f):	0.21263	0.204813	0.00781739	0
    Cd(r):	0.21224	0.204698	0.00754259	0
    Cl:	0.0781109	0.0782011	-9.02299e-05	0
    Cl(f):	0.203229	0.196616	0.00661362	0
    Cl(r):	-0.125119	-0.118415	-0.00670385	0
    CmPitch:	0.164174	0.157515	0.00665873	0
    CmRoll:	0.000194876	5.74761e-05	0.0001374	0
    CmYaw:	-0.00612772	-0.00596195	-0.000165768	0
    Cs:	-0.0095248	-0.00919671	-0.000328084	0
    Cs(f):	-0.0108901	-0.0105603	-0.00032981	0
    Cs(r):	0.00136532	0.00136359	1.72639e-06	0

    writing force and moment coefficient files.

Time = 2010

DILUPBiCG:  Solving for Ux, Initial residual = 0.000296107, Final residual = 2.60317e-05, No Iterations 2
DILUPBiCG:  Solving for Uy, Initial residual = 0.00538869, Final residual = 9.16823e-05, No Iterations 3
DILUPBiCG:  Solving for Uz, Initial residual = 0.00506295, Final residual = 0.000452878, No Iterations 2
DICPCG:  Solving for p, Initial residual = 0.00406695, Final residual = 0.000406108, No Iterations 8
time step continuity errors : sum local = 0.000221535, global = -1.1783e-05, cumulative = -0.00420158
smoothSolver:  Solving for omega, Initial residual = 9.06767e-05, Final residual = 5.04821e-06, No Iterations 3
bounding omega, min: -115.77 max: 1.38506e+06 average: 687.805
smoothSolver:  Solving for k, Initial residual = 0.00139071, Final residual = 9.76635e-05, No Iterations 3
ExecutionTime = 4.37 s  ClockTime = 4 s

forceCoeffs forceCoeffs1 write:
    Coefficient	Total	Pressure	Viscous	Internal
    Cd:	0.424893	0.40954	0.0153526	0
    Cd(f):	0.212462	0.204651	0.00781076	0
    Cd(r):	0.212431	0.204889	0.00754187	0
    Cl:	0.077091	0.0771804	-8.93872e-05	0
    Cl(f):	0.202778	0.196168	0.00661049	0
    Cl(r):	-0.125687	-0.118987	-0.00669988	0
    CmPitch:	0.164233	0.157578	0.00665519	0
    CmRoll:	1.53673e-05	-0.000119078	0.000134445	0
    CmYaw:	-0.00601138	-0.00584806	-0.000163317	0
    Cs:	-0.00861753	-0.00829217	-0.00032536	0
    Cs(f):	-0.0103201	-0.00999415	-0.000325997	0
    Cs(r):	0.00170261	0.00170197	6.3649e-07	0

    writing force and moment coefficient files.

Time = 2011

DILUPBiCG:  Solving for Ux, Initial residual = 0.000292365, Final residual = 2.59392e-05, No Iterations 2
DILUPBiCG:  Solving for Uy, Initial residual = 0.00517219, Final residual = 0.000462586, No Iterations 2
DILUPBiCG:  Solving for Uz, Initial residual = 0.00496439, Final residual = 0.000398476, No Iterations 2
DICPCG:  Solving for p, Initial residual = 0.00406197, Final residual = 0.000397598, No Iterations 16
time step continuity errors : sum local = 0.000216965, global = -7.49899e-06, cumulative = -0.00420908
smoothSolver:  Solving for omega, Initial residual = 9.07772e-05, Final residual = 5.1041e-06, No Iterations 3
bounding omega, min: -111.506 max: 1.38506e+06 average: 687.841
smoothSolver:  Solving for k, Initial residual = 0.00139319, Final residual = 9.77393e-05, No Iterations 3
ExecutionTime = 4.76 s  ClockTime = 4 s

forceCoeffs forceCoeffs1 write:
    Coefficient	Total	Pressure	Viscous	Internal
    Cd:	0.425947	0.410596	0.0153508	0
    Cd(f):	0.212099	0.204293	0.00780597	0
    Cd(r):	0.213847	0.206303	0.0075448	0
    Cl:	0.0767897	0.0768765	-8.68621e-05	0
    Cl(f):	0.202181	0.19557	0.00661098	0
    Cl(r):	-0.125391	-0.118693	-0.00669785	0
    CmPitch:	0.163786	0.157131	0.00665441	0
    CmRoll:	-0.000874076	-0.00100466	0.000130587	0
    CmYaw:	-0.00545826	-0.00529996	-0.000158296	0
    Cs:	-0.005064	-0.00474658	-0.000317421	0
    Cs(f):	-0.00799026	-0.00767325	-0.000317007	0
    Cs(r):	0.00292626	0.00292667	-4.14388e-07	0

    writing force and moment coefficient files.

Time = 2012

DILUPBiCG:  Solving for Ux, Initial residual = 0.000298006, Final residual = 1.01761e-05, No Iterations 3
DILUPBiCG:  Solving for Uy, Initial residual = 0.00542845, Final residual = 0.000133523, No Iterations 3
DILUPBiCG:  Solving for Uz, Initial residual = 0.00510029, Final residual = 0.000409805, No Iterations 2
DICPCG:  Solving for p, Initial residual = 0.00414943, Final residual = 0.000344176, No Iterations 8
time step continuity errors : sum local = 0.000187983, global = -1.3523e-06, cumulative = -0.00421043
smoothSolver:  Solving for omega, Initial residual = 9.07223e-05, Final residual = 5.14243e-06, No Iterations 3
bounding omega, min: -110.428 max: 1.38506e+06 average: 687.905
smoothSolver:  Solving for k, Initial residual = 0.00138644, Final residual = 9.76597e-05, No Iterations 3
ExecutionTime = 5.14 s  ClockTime = 5 s

forceCoeffs forceCoeffs1 write:
    Coefficient	Total	Pressure	Viscous	Internal
    Cd:	0.425652	0.410301	0.0153511	0
    Cd(f):	0.211786	0.203984	0.00780261	0
    Cd(r):	0.213866	0.206317	0.00754847	0
    Cl:	0.0761094	0.0761941	-8.47383e-05	0
    Cl(f):	0.201663	0.195051	0.00661198	0
    Cl(r):	-0.125553	-0.118857	-0.00669672	0
    CmPitch:	0.163608	0.156954	0.00665435	0
    CmRoll:	-0.00103981	-0.00116688	0.000127068	0
    CmYaw:	-0.00549131	-0.00533657	-0.000154739	0
    Cs:	-0.00432198	-0.00401158	-0.000310397	0
    Cs(f):	-0.0076523	-0.00734237	-0.000309937	0
    Cs(r):	0.00333032	0.00333078	-4.59358e-07	0

    writing force and moment coefficient files.

Time = 2013

DILUPBiCG:  Solving for Ux, Initial residual = 0.00029315, Final residual = 2.39122e-05, No Iterations 2
DILUPBiCG:  Solving for Uy, Initial residual = 0.00519584, Final residual = 0.000341787, No Iterations 2
DILUPBiCG:  Solving for Uz, Initial residual = 0.00497869, Final residual = 0.000453547, No Iterations 2
DICPCG:  Solving for p, Initial residual = 0.00406993, Final residual = 0.00038494, No Iterations 10
time step continuity errors : sum local = 0.000210328, global = 3.70619e-06, cumulative = -0.00420672
smoothSolver:  Solving for omega, Initial residual = 9.17789e-05, Final residual = 5.13441e-06, No Iterations 3
bounding omega, min: -108.537 max: 1.38506e+06 average: 687.979
smoothSolver:  Solving for k, Initial residual = 0.00138375, Final residual = 9.75595e-05, No Iterations 3
ExecutionTime = 5.56 s  ClockTime = 5 s

forceCoeffs forceCoeffs1 write:
    Coefficient	Total	Pressure	Viscous	Internal
    Cd:	0.425578	0.410219	0.0153597	0
    Cd(f):	0.211439	0.203635	0.0078049	0
    Cd(r):	0.214139	0.206584	0.00755481	0
    Cl:	0.0761619	0.0762435	-8.15331e-05	0
    Cl(f):	0.2011	0.194483	0.00661663	0
    Cl(r):	-0.124938	-0.11824	-0.00669816	0
    CmPitch:	0.163019	0.156361	0.00665739	0
    CmRoll:	-0.00134974	-0.00147478	0.000125045	0
    CmYaw:	-0.0054248	-0.00527248	-0.000152326	0
    Cs:	-0.00307905	-0.00277515	-0.000303897	0
    Cs(f):	-0.00696433	-0.00666005	-0.000304274	0
    Cs(r):	0.00388528	0.0038849	3.76909e-07	0

    writing force and moment coefficient files.

Time = 2014

DILUPBiCG:  Solving for Ux, Initial residual = 0.000292855, Final residual = 2.52992e-05, No Iterations 2
DILUPBiCG:  Solving for Uy, Initial residual = 0.00527592, Final residual = 0.000358942, No Iterations 2
DILUPBiCG:  Solving for Uz, Initial residual = 0.00500923, Final residual = 7.97052e-05, No Iterations 3
DICPCG:  Solving for p, Initial residual = 0.00411342, Final residual = 0.000385902, No Iterations 12
time step continuity errors : sum local = 0.000211001, global = 9.31171e-06, cumulative = -0.00419741
smoothSolver:  Solving for omega, Initial residual = 9.232e-05, Final residual = 5.12811e-06, No Iterations 3
bounding omega, min: -104.772 max: 1.38506e+06 average: 687.992
smoothSolver:  Solving for k, Initial residual = 0.00138781, Final residual = 9.7477e-05, No Iterations 3
ExecutionTime = 5.99 s  ClockTime = 6 s

forceCoeffs forceCoeffs1 write:
    Coefficient	Total	Pressure	Viscous	Internal
    Cd:	0.425467	0.410095	0.0153717	0
    Cd(f):	0.210943	0.203134	0.00780912	0
    Cd(r):	0.214524	0.206961	0.00756261	0
    Cl:	0.0767483	0.0768262	-7.78999e-05	0
    Cl(f):	0.200626	0.194004	0.00662218	0
    Cl(r):	-0.123878	-0.117178	-0.00670008	0
    CmPitch:	0.162252	0.155591	0.00666113	0
    CmRoll:	-0.00179069	-0.00191395	0.000123255	0
    CmYaw:	-0.005376	-0.00522537	-0.000150631	0
    Cs:	-0.00147638	-0.00118015	-0.000296227	0
    Cs(f):	-0.00611419	-0.00581544	-0.000298745	0
    Cs(r):	0.00463781	0.00463529	2.51816e-06	0

    writing force and moment coefficient files.

Time = 2015

DILUPBiCG:  Solving for Ux, Initial residual = 0.000294512, Final residual = 2.87602e-05, No Iterations 2
DILUPBiCG:  Solving for Uy, Initial residual = 0.00546979, Final residual = 0.00036289, No Iterations 2
DILUPBiCG:  Solving for Uz, Initial residual = 0.00501236, Final residual = 0.000497331, No Iterations 2
DICPCG:  Solving for p, Initial residual = 0.00408192, Final residual = 0.000389336, No Iterations 8
time step continuity errors : sum local = 0.000213057, global = 1.55326e-05, cumulative = -0.00418188
smoothSolver:  Solving for omega, Initial residual = 9.19693e-05, Final residual = 5.12261e-06, No Iterations 3
bounding omega, min: -101.832 max: 1.38506e+06 average: 688.044
smoothSolver:  Solving for k, Initial residual = 0.00138283, Final residual = 9.75502e-05, No Iterations 3
ExecutionTime = 6.37 s  ClockTime = 6 s

forceCoeffs forceCoeffs1 write:
    Coefficient	Total	Pressure	Viscous	Internal
    Cd:	0.424998	0.409609	0.0153886	0
    Cd(f):	0.21061	0.202793	0.00781777	0
    Cd(r):	0.214387	0.206817	0.00757085	0
    Cl:	0.0768527	0.076927	-7.43882e-05	0
    Cl(f):	0.200215	0.193585	0.00663072	0
    Cl(r):	-0.123363	-0.116657	-0.00670511	0
    CmPitch:	0.161789	0.155121	0.00666792	0
    CmRoll:	-0.00188846	-0.00201192	0.000123459	0
    CmYaw:	-0.00555288	-0.00540289	-0.000149987	0
    Cs:	-0.00117627	-0.000884002	-0.00029227	0
    Cs(f):	-0.00614102	-0.00584489	-0.000296122	0
    Cs(r):	0.00496474	0.00496089	3.85189e-06	0

    writing force and moment coefficient files.

Time = 2016

DILUPBiCG:  Solving for Ux, Initial residual = 0.000288673, Final residual = 2.71067e-05, No Iterations 2
DILUPBiCG:  Solving for Uy, Initial residual = 0.00533744, Final residual = 0.000355381, No Iterations 2
DILUPBiCG:  Solving for Uz, Initial residual = 0.00497105, Final residual = 0.000481468, No Iterations 2
DICPCG:  Solving for p, Initial residual = 0.00402656, Final residual = 0.000393755, No Iterations 11
time step continuity errors : sum local = 0.000215615, global = 1.96308e-05, cumulative = -0.00416225
smoothSolver:  Solving for omega, Initial residual = 9.13297e-05, Final residual = 5.09749e-06, No Iterations 3
bounding omega, min: -99.4961 max: 1.38506e+06 average: 688.013
smoothSolver:  Solving for k, Initial residual = 0.00138041, Final residual = 9.7973e-05, No Iterations 3
ExecutionTime = 6.75 s  ClockTime = 6 s

forceCoeffs forceCoeffs1 write:
    Coefficient	Total	Pressure	Viscous	Internal
    Cd:	0.424143	0.408737	0.0154062	0
    Cd(f):	0.210137	0.20231	0.00782723	0
    Cd(r):	0.214006	0.206427	0.00757898	0
    Cl:	0.0780399	0.0781098	-6.99436e-05	0
    Cl(f):	0.199683	0.193043	0.00663992	0
    Cl(r):	-0.121643	-0.114933	-0.00670987	0
    CmPitch:	0.160663	0.153988	0.0066749	0
    CmRoll:	-0.00193431	-0.00205843	0.000124124	0
    CmYaw:	-0.00582124	-0.00567021	-0.000151026	0
    Cs:	-0.00138651	-0.00109683	-0.000289681	0
    Cs(f):	-0.00651449	-0.00621863	-0.000295866	0
    Cs(r):	0.00512799	0.0051218	6.18567e-06	0

    writing force and moment coefficient files.

Time = 2017

DILUPBiCG:  Solving for Ux, Initial residual = 0.000289717, Final residual = 2.4256e-05, No Iterations 2
DILUPBiCG:  Solving for Uy, Initial residual = 0.00552289, Final residual = 0.000387171, No Iterations 2
DILUPBiCG:  Solving for Uz, Initial residual = 0.0050444, Final residual = 0.000478437, No Iterations 2
DICPCG:  Solving for p, Initial residual = 0.00404243, Final residual = 0.000398415, No Iterations 9
time step continuity errors : sum local = 0.000218354, global = 2.28988e-05, cumulative = -0.00413935
smoothSolver:  Solving for omega, Initial residual = 9.08427e-05, Final residual = 5.07674e-06, No Iterations 3
bounding omega, min: -95.4799 max: 1.38506e+06 average: 687.983
smoothSolver:  Solving for k, Initial residual = 0.00137939, Final residual = 9.81214e-05, No Iterations 3
ExecutionTime = 7.13 s  ClockTime = 7 s

forceCoeffs forceCoeffs1 write:
    Coefficient	Total	Pressure	Viscous	Internal
    Cd:	0.42343	0.408007	0.0154228	0
    Cd(f):	0.209892	0.202054	0.00783798	0
    Cd(r):	0.213537	0.205953	0.00758482	0
    Cl:	0.0788255	0.0788916	-6.6128e-05	0
    Cl(f):	0.199469	0.192819	0.00664999	0
    Cl(r):	-0.120644	-0.113927	-0.00671612	0
    CmPitch:	0.160056	0.153373	0.00668306	0
    CmRoll:	-0.0018226	-0.00194918	0.000126582	0
    CmYaw:	-0.0060395	-0.00588664	-0.000152852	0
    Cs:	-0.00219188	-0.00190105	-0.000290835	0
    Cs(f):	-0.00713544	-0.00683717	-0.000298269	0
    Cs(r):	0.00494355	0.00493612	7.4342e-06	0

    writing force and moment coefficient files.

Time = 2018

DILUPBiCG:  Solving for Ux, Initial residual = 0.000287514, Final residual = 2.15999e-05, No Iterations 2
DILUPBiCG:  Solving for Uy, Initial residual = 0.0054347, Final residual = 0.00038353, No Iterations 2
DILUPBiCG:  Solving for Uz, Initial residual = 0.00497166, Final residual = 0.00043526, No Iterations 2
DICPCG:  Solving for p, Initial residual = 0.00404546, Final residual = 0.000395144, No Iterations 13
time step continuity errors : sum local = 0.00021668, global = 2.36644e-05, cumulative = -0.00411568
smoothSolver:  Solving for omega, Initial residual = 8.99031e-05, Final residual = 5.02405e-06, No Iterations 3
bounding omega, min: -93.8172 max: 1.38506e+06 average: 687.973
smoothSolver:  Solving for k, Initial residual = 0.001373, Final residual = 9.81823e-05, No Iterations 3
ExecutionTime = 7.52 s  ClockTime = 7 s

forceCoeffs forceCoeffs1 write:
    Coefficient	Total	Pressure	Viscous	Internal
    Cd:	0.422232	0.406794	0.0154374	0
    Cd(f):	0.209731	0.201882	0.0078488	0
    Cd(r):	0.212501	0.204912	0.00758864	0
    Cl:	0.0803104	0.0803743	-6.38523e-05	0
    Cl(f):	0.199321	0.192662	0.00665887	0
    Cl(r):	-0.119011	-0.112288	-0.00672272	0
    CmPitch:	0.159166	0.152475	0.0066908	0
    CmRoll:	-0.0013847	-0.00151478	0.000130078	0
    CmYaw:	-0.00639692	-0.00624062	-0.000156299	0
    Cs:	-0.0043571	-0.00406107	-0.00029603	0
    Cs(f):	-0.00857547	-0.00827116	-0.000304314	0
    Cs(r):	0.00421837	0.00421009	8.28402e-06	0

    writing force and moment coefficient files.

Time = 2019

DILUPBiCG:  Solving for Ux, Initial residual = 0.000292299, Final residual = 2.23481e-05, No Iterations 2
DILUPBiCG:  Solving for Uy, Initial residual = 0.00559078, Final residual = 0.000414711, No Iterations 2
DILUPBiCG:  Solving for Uz, Initial residual = 0.00499835, Final residual = 0.000410812, No Iterations 2
DICPCG:  Solving for p, Initial residual = 0.00409559, Final residual = 0.000406997, No Iterations 8
time step continuity errors : sum local = 0.00022335, global = 2.38452e-05, cumulative = -0.00409184
smoothSolver:  Solving for omega, Initial residual = 8.87946e-05, Final residual = 4.95648e-06, No Iterations 3
bounding omega, min: -92.4731 max: 1.38506e+06 average: 687.982
smoothSolver:  Solving for k, Initial residual = 0.00136199, Final residual = 9.80885e-05, No Iterations 3
ExecutionTime = 7.89 s  ClockTime = 7 s

forceCoeffs forceCoeffs1 write:
    Coefficient	Total	Pressure	Viscous	Internal
    Cd:	0.421834	0.406386	0.0154481	0
    Cd(f):	0.209735	0.201877	0.00785835	0
    Cd(r):	0.212099	0.204509	0.00758977	0
    Cl:	0.0810947	0.0811593	-6.45784e-05	0
    Cl(f):	0.199377	0.192712	0.00666519	0
    Cl(r):	-0.118283	-0.111553	-0.00672976	0
    CmPitch:	0.15883	0.152133	0.00669748	0
    CmRoll:	-0.00118192	-0.00131622	0.000134293	0
    CmYaw:	-0.00643805	-0.00627896	-0.000159089	0
    Cs:	-0.0054182	-0.00511547	-0.000302731	0
    Cs(f):	-0.00914715	-0.0088367	-0.000310454	0
    Cs(r):	0.00372895	0.00372123	7.72289e-06	0

    writing force and moment coefficient files.

Time = 2020

DILUPBiCG:  Solving for Ux, Initial residual = 0.000289625, Final residual = 2.21263e-05, No Iterations 2
DILUPBiCG:  Solving for Uy, Initial residual = 0.00538827, Final residual = 0.000389212, No Iterations 2
DILUPBiCG:  Solving for Uz, Initial residual = 0.00488011, Final residual = 0.000365716, No Iterations 2
DICPCG:  Solving for p, Initial residual = 0.00405316, Final residual = 0.000400145, No Iterations 20
time step continuity errors : sum local = 0.000219635, global = 1.81002e-05, cumulative = -0.00407374
smoothSolver:  Solving for omega, Initial residual = 8.93159e-05, Final residual = 4.8873e-06, No Iterations 3
bounding omega, min: -96.1018 max: 1.38506e+06 average: 687.965
smoothSolver:  Solving for k, Initial residual = 0.00135996, Final residual = 9.78102e-05, No Iterations 3
ExecutionTime = 8.27 s  ClockTime = 8 s

forceCoeffs forceCoeffs1 write:
    Coefficient	Total	Pressure	Viscous	Internal
    Cd:	0.419683	0.404231	0.0154514	0
    Cd(f):	0.210153	0.202287	0.00786602	0
    Cd(r):	0.209529	0.201944	0.00758539	0
    Cl:	0.0820837	0.0821519	-6.81876e-05	0
    Cl(f):	0.199147	0.19248	0.00666664	0
    Cl(r):	-0.117063	-0.110328	-0.00673483	0
    CmPitch:	0.158105	0.151404	0.00670073	0
    CmRoll:	0.000312016	0.000171701	0.000140315	0
    CmYaw:	-0.00679727	-0.00663401	-0.000163257	0
    Cs:	-0.0100473	-0.00973118	-0.000316073	0
    Cs(f):	-0.0118209	-0.0114996	-0.000321294	0
    Cs(r):	0.00177364	0.00176842	5.22061e-06	0

    writing force and moment coefficient files.

Time = 2021

DILUPBiCG:  Solving for Ux, Initial residual = 0.000303396, Final residual = 2.75964e-05, No Iterations 2
DILUPBiCG:  Solving for Uy, Initial residual = 0.00586713, Final residual = 0.000460652, No Iterations 2
DILUPBiCG:  Solving for Uz, Initial residual = 0.0051274, Final residual = 0.000368393, No Iterations 2
DICPCG:  Solving for p, Initial residual = 0.00423672, Final residual = 0.00040633, No Iterations 8
time step continuity errors : sum local = 0.000223288, global = 1.25073e-05, cumulative = -0.00406123
smoothSolver:  Solving for omega, Initial residual = 8.90548e-05, Final residual = 4.91134e-06, No Iterations 3
bounding omega, min: -99.4337 max: 1.38506e+06 average: 687.961
smoothSolver:  Solving for k, Initial residual = 0.0013553, Final residual = 9.73602e-05, No Iterations 3
ExecutionTime = 8.62 s  ClockTime = 8 s

forceCoeffs forceCoeffs1 write:
    Coefficient	Total	Pressure	Viscous	Internal
    Cd:	0.419916	0.404462	0.0154538	0
    Cd(f):	0.210238	0.202366	0.00787221	0
    Cd(r):	0.209677	0.202096	0.00758159	0
    Cl:	0.0826142	0.0826876	-7.33374e-05	0
    Cl(f):	0.199331	0.192664	0.0066675	0
    Cl(r):	-0.116717	-0.109976	-0.00674083	0
    CmPitch:	0.158024	0.15132	0.00670416	0
    CmRoll:	0.000280511	0.000135197	0.000145314	0
    CmYaw:	-0.00661982	-0.0064539	-0.000165924	0
    Cs:	-0.0102188	-0.00989246	-0.000326373	0
    Cs(f):	-0.0117292	-0.0114001	-0.000329111	0
    Cs(r):	0.00151041	0.00150767	2.73807e-06	0

    writing force and moment coefficient files.

Time = 2022

DILUPBiCG:  Solving for Ux, Initial residual = 0.000300572, Final residual = 2.58802e-05, No Iterations 2
DILUPBiCG:  Solving for Uy, Initial residual = 0.00558237, Final residual = 0.000395225, No Iterations 2
DILUPBiCG:  Solving for Uz, Initial residual = 0.00505078, Final residual = 0.000369341, No Iterations 2
DICPCG:  Solving for p, Initial residual = 0.00414343, Final residual = 0.000406977, No Iterations 10
time step continuity errors : sum local = 0.000223667, global = 7.62985e-06, cumulative = -0.0040536
smoothSolver:  Solving for omega, Initial residual = 8.99565e-05, Final residual = 4.99773e-06, No Iterations 3
bounding omega, min: -104.388 max: 1.38506e+06 average: 687.901
smoothSolver:  Solving for k, Initial residual = 0.00135445, Final residual = 9.67821e-05, No Iterations 3
ExecutionTime = 8.98 s  ClockTime = 9 s

forceCoeffs forceCoeffs1 write:
    Coefficient	Total	Pressure	Viscous	Internal
    Cd:	0.419975	0.404527	0.015448	0
    Cd(f):	0.21029	0.202417	0.00787292	0
    Cd(r):	0.209685	0.20211	0.00757504	0
    Cl:	0.0829641	0.0830426	-7.8455e-05	0
    Cl(f):	0.199765	0.1931	0.00666538	0
    Cl(r):	-0.116801	-0.110057	-0.00674383	0
    CmPitch:	0.158283	0.151578	0.00670461	0
    CmRoll:	0.000302664	0.000153724	0.00014894	0
    CmYaw:	-0.00645471	-0.00628705	-0.000167661	0
    Cs:	-0.0102531	-0.00991951	-0.0003336	0
    Cs(f):	-0.0115813	-0.0112468	-0.000334461	0
    Cs(r):	0.00132816	0.0013273	8.60973e-07	0

    writing force and moment coefficient files.

Time = 2023

DILUPBiCG:  Solving for Ux, Initial residual = 0.000299167, Final residual = 3.64019e-06, No Iterations 4
DILUPBiCG:  Solving for Uy, Initial residual = 0.00551617, Final residual = 0.000371375, No Iterations 2
DILUPBiCG:  Solving for Uz, Initial residual = 0.00508771, Final residual = 0.000123711, No Iterations 3
DICPCG:  Solving for p, Initial residual = 0.00417343, Final residual = 0.000389039, No Iterations 14
time step continuity errors : sum local = 0.000213793, global = 3.90175e-06, cumulative = -0.0040497
smoothSolver:  Solving for omega, Initial residual = 8.96367e-05, Final residual = 5.09982e-06, No Iterations 3
bounding omega, min: -112.324 max: 1.38506e+06 average: 687.921
smoothSolver:  Solving for k, Initial residual = 0.00135771, Final residual = 9.6054e-05, No Iterations 3
ExecutionTime = 9.37 s  ClockTime = 9 s

forceCoeffs forceCoeffs1 write:
    Coefficient	Total	Pressure	Viscous	Internal
    Cd:	0.419664	0.404224	0.0154397	0
    Cd(f):	0.21042	0.202548	0.0078724	0
    Cd(r):	0.209244	0.201676	0.0075673	0
    Cl:	0.0825522	0.0826353	-8.30517e-05	0
    Cl(f):	0.200225	0.193563	0.00666261	0
    Cl(r):	-0.117673	-0.110928	-0.00674566	0
    CmPitch:	0.158949	0.152245	0.00670413	0
    CmRoll:	0.000588309	0.000435761	0.000152548	0
    CmYaw:	-0.00629209	-0.006124	-0.00016809	0
    Cs:	-0.01046	-0.0101198	-0.000340216	0
    Cs(f):	-0.0115221	-0.0111839	-0.000338197	0
    Cs(r):	0.0010621	0.00106412	-2.01835e-06	0

    writing force and moment coefficient files.

Time = 2024

DILUPBiCG:  Solving for Ux, Initial residual = 0.00030138, Final residual = 9.72097e-06, No Iterations 3
DILUPBiCG:  Solving for Uy, Initial residual = 0.00561777, Final residual = 0.000408659, No Iterations 2
DILUPBiCG:  Solving for Uz, Initial residual = 0.00503669, Final residual = 0.000467205, No Iterations 2
DICPCG:  Solving for p, Initial residual = 0.00423293, Final residual = 0.00040677, No Iterations 7
time step continuity errors : sum local = 0.000223473, global = -1.09572e-06, cumulative = -0.0040508
smoothSolver:  Solving for omega, Initial residual = 8.9876e-05, Final residual = 5.15822e-06, No Iterations 3
bounding omega, min: -116.639 max: 1.38506e+06 average: 687.891
smoothSolver:  Solving for k, Initial residual = 0.0013664, Final residual = 9.61811e-05, No Iterations 3
ExecutionTime = 9.75 s  ClockTime = 9 s

forceCoeffs forceCoeffs1 write:
    Coefficient	Total	Pressure	Viscous	Internal
    Cd:	0.420025	0.404598	0.0154268	0
    Cd(f):	0.210522	0.202654	0.00786791	0
    Cd(r):	0.209503	0.201944	0.0075589	0
    Cl:	0.083295	0.0833831	-8.80527e-05	0
    Cl(f):	0.200967	0.19431	0.00665679	0
    Cl(r):	-0.117672	-0.110927	-0.00674485	0
    CmPitch:	0.159319	0.152618	0.00670082	0
    CmRoll:	0.000509586	0.000355081	0.000154506	0
    CmYaw:	-0.00621622	-0.0060481	-0.000168112	0
    Cs:	-0.0100883	-0.00974419	-0.000344116	0
    Cs(f):	-0.0112604	-0.0109202	-0.00034017	0
    Cs(r):	0.00117206	0.00117601	-3.94582e-06	0

    writing force and moment coefficient files.

Time = 2025

DILUPBiCG:  Solving for Ux, Initial residual = 0.0002976, Final residual = 8.84733e-06, No Iterations 3
DILUPBiCG:  Solving for Uy, Initial residual = 0.00534126, Final residual = 0.000238005, No Iterations 3
DILUPBiCG:  Solving for Uz, Initial residual = 0.00482703, Final residual = 0.000457413, No Iterations 2
DICPCG:  Solving for p, Initial residual = 0.00411757, Final residual = 0.000403113, No Iterations 13
time step continuity errors : sum local = 0.0002214, global = -4.86086e-06, cumulative = -0.00405566
smoothSolver:  Solving for omega, Initial residual = 8.93455e-05, Final residual = 5.14413e-06, No Iterations 3
bounding omega, min: -117.907 max: 1.38506e+06 average: 687.918
smoothSolver:  Solving for k, Initial residual = 0.00137005, Final residual = 9.66267e-05, No Iterations 3
ExecutionTime = 10.14 s  ClockTime = 10 s

forceCoeffs forceCoeffs1 write:
    Coefficient	Total	Pressure	Viscous	Internal
    Cd:	0.420779	0.405367	0.0154122	0
    Cd(f):	0.210857	0.202995	0.00786249	0
    Cd(r):	0.209922	0.202372	0.0075497	0
    Cl:	0.0825455	0.0826367	-9.11928e-05	0
    Cl(f):	0.201925	0.195273	0.00665143	0
    Cl(r):	-0.119379	-0.112637	-0.00674263	0
    CmPitch:	0.160652	0.153955	0.00669703	0
    CmRoll:	0.000467556	0.000311164	0.000156392	0
    CmYaw:	-0.00589658	-0.00572965	-0.000166934	0
    Cs:	-0.00882009	-0.00847407	-0.000346015	0
    Cs(f):	-0.0103066	-0.00996668	-0.000339942	0
    Cs(r):	0.00148654	0.00149261	-6.07373e-06	0

    writing force and moment coefficient files.

Time = 2026

DILUPBiCG:  Solving for Ux, Initial residual = 0.000300033, Final residual = 7.09493e-06, No Iterations 3
DILUPBiCG:  Solving for Uy, Initial residual = 0.00551628, Final residual = 0.000476704, No Iterations 2
DILUPBiCG:  Solving for Uz, Initial residual = 0.00488342, Final residual = 6.36012e-05, No Iterations 3
DICPCG:  Solving for p, Initial residual = 0.00411925, Final residual = 0.000384936, No Iterations 8
time step continuity errors : sum local = 0.000211193, global = -9.00246e-06, cumulative = -0.00406466
smoothSolver:  Solving for omega, Initial residual = 8.87783e-05, Final residual = 5.08364e-06, No Iterations 3
bounding omega, min: -118.939 max: 1.38506e+06 average: 687.956
smoothSolver:  Solving for k, Initial residual = 0.00137258, Final residual = 9.74957e-05, No Iterations 3
ExecutionTime = 10.56 s  ClockTime = 10 s

forceCoeffs forceCoeffs1 write:
    Coefficient	Total	Pressure	Viscous	Internal
    Cd:	0.421479	0.406082	0.0153964	0
    Cd(f):	0.211084	0.203229	0.00785566	0
    Cd(r):	0.210394	0.202854	0.00754075	0
    Cl:	0.0827361	0.0828302	-9.40435e-05	0
    Cl(f):	0.202615	0.195971	0.00664439	0
    Cl(r):	-0.119879	-0.113141	-0.00673843	0
    CmPitch:	0.161247	0.154556	0.00669141	0
    CmRoll:	0.000344951	0.000187495	0.000157456	0
    CmYaw:	-0.00582668	-0.00566034	-0.000166342	0
    Cs:	-0.00806656	-0.00771947	-0.000347089	0
    Cs(f):	-0.00985996	-0.00952008	-0.000339886	0
    Cs(r):	0.0017934	0.0018006	-7.20279e-06	0

    writing force and moment coefficient files.

Time = 2027

DILUPBiCG:  Solving for Ux, Initial residual = 0.000296065, Final residual = 6.506e-06, No Iterations 3
DILUPBiCG:  Solving for Uy, Initial residual = 0.00534137, Final residual = 9.93339e-05, No Iterations 3
DILUPBiCG:  Solving for Uz, Initial residual = 0.00482578, Final residual = 6.17459e-05, No Iterations 3
DICPCG:  Solving for p, Initial residual = 0.00402711, Final residual = 0.000397249, No Iterations 12
time step continuity errors : sum local = 0.000217826, global = -1.20846e-05, cumulative = -0.00407674
smoothSolver:  Solving for omega, Initial residual = 8.85479e-05, Final residual = 5.02189e-06, No Iterations 3
bounding omega, min: -116.455 max: 1.38506e+06 average: 688.01
smoothSolver:  Solving for k, Initial residual = 0.00137471, Final residual = 9.88362e-05, No Iterations 3
ExecutionTime = 10.97 s  ClockTime = 11 s

forceCoeffs forceCoeffs1 write:
    Coefficient	Total	Pressure	Viscous	Internal
    Cd:	0.422773	0.407389	0.0153836	0
    Cd(f):	0.211463	0.203613	0.00784999	0
    Cd(r):	0.21131	0.203776	0.00753362	0
    Cl:	0.081775	0.0818698	-9.48411e-05	0
    Cl(f):	0.203539	0.1969	0.00663814	0
    Cl(r):	-0.121764	-0.115031	-0.00673298	0
    CmPitch:	0.162651	0.155966	0.00668556	0
    CmRoll:	7.66161e-05	-8.15698e-05	0.000158186	0
    CmYaw:	-0.00554241	-0.00537774	-0.000164668	0
    Cs:	-0.00639001	-0.00604438	-0.000345637	0
    Cs(f):	-0.00873742	-0.00839993	-0.000337486	0
    Cs(r):	0.00234741	0.00235556	-8.15041e-06	0

    writing force and moment coefficient files.

Time = 2028

DILUPBiCG:  Solving for Ux, Initial residual = 0.000298794, Final residual = 3.62757e-06, No Iterations 3
DILUPBiCG:  Solving for Uy, Initial residual = 0.00549159, Final residual = 0.000508365, No Iterations 2
DILUPBiCG:  Solving for Uz, Initial residual = 0.0049147, Final residual = 6.45115e-05, No Iterations 3
DICPCG:  Solving for p, Initial residual = 0.00407205, Final residual = 0.000390676, No Iterations 8
time step continuity errors : sum local = 0.000213935, global = -1.57681e-05, cumulative = -0.00409251
smoothSolver:  Solving for omega, Initial residual = 8.90442e-05, Final residual = 4.98469e-06, No Iterations 3
bounding omega, min: -116.828 max: 1.38506e+06 average: 688.054
smoothSolver:  Solving for k, Initial residual = 0.00138011, Final residual = 0.00010002, No Iterations 3
ExecutionTime = 11.37 s  ClockTime = 11 s

forceCoeffs forceCoeffs1 write:
    Coefficient	Total	Pressure	Viscous	Internal
    Cd:	0.423417	0.408042	0.0153753	0
    Cd(f):	0.211589	0.203744	0.00784577	0
    Cd(r):	0.211828	0.204298	0.00752955	0
    Cl:	0.0814384	0.0815337	-9.52388e-05	0
    Cl(f):	0.203873	0.197241	0.00663167	0
    Cl(r):	-0.122435	-0.115708	-0.00672691	0
    CmPitch:	0.163154	0.156475	0.00667929	0
    CmRoll:	-0.000119078	-0.000277189	0.000158111	0
    CmYaw:	-0.00549984	-0.00533622	-0.00016362	0
    Cs:	-0.00551051	-0.00516739	-0.000343122	0
    Cs(f):	-0.0082551	-0.00791992	-0.000335181	0
    Cs(r):	0.00274459	0.00275253	-7.94035e-06	0

    writing force and moment coefficient files.

Time = 2029

DILUPBiCG:  Solving for Ux, Initial residual = 0.000295035, Final residual = 6.0948e-06, No Iterations 3
DILUPBiCG:  Solving for Uy, Initial residual = 0.00534839, Final residual = 0.000134027, No Iterations 3
DILUPBiCG:  Solving for Uz, Initial residual = 0.00485683, Final residual = 7.29759e-05, No Iterations 3
DICPCG:  Solving for p, Initial residual = 0.00401508, Final residual = 0.000398076, No Iterations 14
time step continuity errors : sum local = 0.000217837, global = -1.68138e-05, cumulative = -0.00410933
smoothSolver:  Solving for omega, Initial residual = 8.95515e-05, Final residual = 4.99078e-06, No Iterations 3
bounding omega, min: -112.829 max: 1.38506e+06 average: 688.123
smoothSolver:  Solving for k, Initial residual = 0.00138228, Final residual = 0.000100825, No Iterations 3
ExecutionTime = 11.77 s  ClockTime = 11 s

forceCoeffs forceCoeffs1 write:
    Coefficient	Total	Pressure	Viscous	Internal
    Cd:	0.424858	0.409485	0.0153729	0
    Cd(f):	0.211698	0.203855	0.00784339	0
    Cd(r):	0.21316	0.20563	0.00752948	0
    Cl:	0.0801018	0.0801946	-9.27989e-05	0
    Cl(f):	0.204491	0.197863	0.00662762	0
    Cl(r):	-0.124389	-0.117669	-0.00672042	0
    CmPitch:	0.16444	0.157766	0.00667402	0
    CmRoll:	-0.000730795	-0.000887747	0.000156952	0
    CmYaw:	-0.00550331	-0.00534092	-0.000162394	0
    Cs:	-0.00352374	-0.00318703	-0.000336707	0
    Cs(f):	-0.00726518	-0.00693443	-0.000330747	0
    Cs(r):	0.00374145	0.00374741	-5.96e-06	0

    writing force and moment coefficient files.

Time = 2030

DILUPBiCG:  Solving for Ux, Initial residual = 0.000302508, Final residual = 1.52805e-05, No Iterations 3
DILUPBiCG:  Solving for Uy, Initial residual = 0.00569737, Final residual = 0.00027595, No Iterations 3
DILUPBiCG:  Solving for Uz, Initial residual = 0.00508933, Final residual = 8.43219e-05, No Iterations 3
DICPCG:  Solving for p, Initial residual = 0.00410708, Final residual = 0.000401135, No Iterations 7
time step continuity errors : sum local = 0.000219139, global = -1.99502e-05, cumulative = -0.00412928
smoothSolver:  Solving for omega, Initial residual = 9.06298e-05, Final residual = 5.05935e-06, No Iterations 3
bounding omega, min: -110.827 max: 1.38506e+06 average: 688.164
smoothSolver:  Solving for k, Initial residual = 0.00138936, Final residual = 0.000101234, No Iterations 3
ExecutionTime = 12.16 s  ClockTime = 12 s

forceCoeffs forceCoeffs1 write:
    Coefficient	Total	Pressure	Viscous	Internal
    Cd:	0.425172	0.409798	0.0153747	0
    Cd(f):	0.211733	0.203891	0.00784265	0
    Cd(r):	0.213439	0.205907	0.00753201	0
    Cl:	0.0793488	0.0794381	-8.93446e-05	0
    Cl(f):	0.204432	0.197808	0.00662477	0
    Cl(r):	-0.125084	-0.11837	-0.00671411	0
    CmPitch:	0.164758	0.158089	0.00666944	0
    CmRoll:	-0.00085294	-0.00100826	0.000155319	0
    CmYaw:	-0.00564126	-0.00547999	-0.000161274	0
    Cs:	-0.00309899	-0.00276776	-0.000331224	0
    Cs(f):	-0.00719076	-0.00686387	-0.000326886	0
    Cs(r):	0.00409177	0.00409611	-4.33809e-06	0

    writing force and moment coefficient files.

Time = 2031

DILUPBiCG:  Solving for Ux, Initial residual = 0.000297997, Final residual = 2.78257e-05, No Iterations 2
DILUPBiCG:  Solving for Uy, Initial residual = 0.0054531, Final residual = 0.000313122, No Iterations 2
DILUPBiCG:  Solving for Uz, Initial residual = 0.00499092, Final residual = 0.000108206, No Iterations 3
DICPCG:  Solving for p, Initial residual = 0.00411087, Final residual = 0.000401493, No Iterations 19
time step continuity errors : sum local = 0.00021921, global = -1.88087e-05, cumulative = -0.00414808
smoothSolver:  Solving for omega, Initial residual = 9.17021e-05, Final residual = 5.15649e-06, No Iterations 3
bounding omega, min: -106.416 max: 1.38506e+06 average: 688.197
smoothSolver:  Solving for k, Initial residual = 0.00140041, Final residual = 0.000101442, No Iterations 3
ExecutionTime = 12.57 s  ClockTime = 12 s

forceCoeffs forceCoeffs1 write:
    Coefficient	Total	Pressure	Viscous	Internal
    Cd:	0.426951	0.411568	0.0153826	0
    Cd(f):	0.212154	0.20431	0.00784469	0
    Cd(r):	0.214797	0.207259	0.00753789	0
    Cl:	0.0784231	0.078507	-8.38758e-05	0
    Cl(f):	0.204758	0.198134	0.00662477	0
    Cl(r):	-0.126335	-0.119627	-0.00670864	0
    CmPitch:	0.165547	0.15888	0.00666671	0
    CmRoll:	-0.0013211	-0.0014745	0.0001534	0
    CmYaw:	-0.00643159	-0.00626961	-0.000161978	0
    Cs:	-0.00294706	-0.00261955	-0.000327514	0
    Cs(f):	-0.00790512	-0.00757938	-0.000325735	0
    Cs(r):	0.00495806	0.00495984	-1.77865e-06	0

    writing force and moment coefficient files.

Time = 2032

DILUPBiCG:  Solving for Ux, Initial residual = 0.000307842, Final residual = 2.01008e-05, No Iterations 2
DILUPBiCG:  Solving for Uy, Initial residual = 0.0059677, Final residual = 0.000423509, No Iterations 2
DILUPBiCG:  Solving for Uz, Initial residual = 0.00531886, Final residual = 0.000135412, No Iterations 3
DICPCG:  Solving for p, Initial residual = 0.00432405, Final residual = 0.000363326, No Iterations 8
time step continuity errors : sum local = 0.000198039, global = -1.56751e-05, cumulative = -0.00416376
smoothSolver:  Solving for omega, Initial residual = 9.20285e-05, Final residual = 5.20415e-06, No Iterations 3
bounding omega, min: -100.127 max: 1.38506e+06 average: 688.216
smoothSolver:  Solving for k, Initial residual = 0.00139374, Final residual = 0.000100532, No Iterations 3
ExecutionTime = 12.96 s  ClockTime = 13 s

forceCoeffs forceCoeffs1 write:
    Coefficient	Total	Pressure	Viscous	Internal
    Cd:	0.426959	0.411572	0.0153874	0
    Cd(f):	0.212176	0.204332	0.00784455	0
    Cd(r):	0.214783	0.20724	0.00754287	0
    Cl:	0.0774871	0.0775651	-7.79121e-05	0
    Cl(f):	0.204358	0.197734	0.00662461	0
    Cl(r):	-0.126871	-0.120169	-0.00670252	0
    CmPitch:	0.165615	0.158951	0.00666357	0
    CmRoll:	-0.00130331	-0.00145415	0.000150842	0
    CmYaw:	-0.00657758	-0.00641487	-0.000162712	0
    Cs:	-0.00316066	-0.00283762	-0.000323037	0
    Cs(f):	-0.00815791	-0.00783368	-0.00032423	0
    Cs(r):	0.00499726	0.00499606	1.19386e-06	0

    writing force and moment coefficient files.

Time = 2033

DILUPBiCG:  Solving for Ux, Initial residual = 0.000304712, Final residual = 1.87646e-05, No Iterations 2
DILUPBiCG:  Solving for Uy, Initial residual = 0.00568901, Final residual = 0.00016318, No Iterations 3
DILUPBiCG:  Solving for Uz, Initial residual = 0.00519501, Final residual = 0.000242781, No Iterations 3
DICPCG:  Solving for p, Initial residual = 0.00422228, Final residual = 0.000391252, No Iterations 10
time step continuity errors : sum local = 0.000213216, global = -1.06164e-05, cumulative = -0.00417438
smoothSolver:  Solving for omega, Initial residual = 9.20877e-05, Final residual = 5.23075e-06, No Iterations 3
bounding omega, min: -98.4483 max: 1.38506e+06 average: 688.233
smoothSolver:  Solving for k, Initial residual = 0.00139123, Final residual = 9.94165e-05, No Iterations 3
ExecutionTime = 13.36 s  ClockTime = 13 s

forceCoeffs forceCoeffs1 write:
    Coefficient	Total	Pressure	Viscous	Internal
    Cd:	0.426974	0.41158	0.0153943	0
    Cd(f):	0.212282	0.204435	0.00784657	0
    Cd(r):	0.214692	0.207145	0.00754777	0
    Cl:	0.0768699	0.0769426	-7.26369e-05	0
    Cl(f):	0.203885	0.197258	0.00662627	0
    Cl(r):	-0.127015	-0.120316	-0.00669891	0
    CmPitch:	0.16545	0.158787	0.00666259	0
    CmRoll:	-0.00120517	-0.00135458	0.000149404	0
    CmYaw:	-0.00689358	-0.00672953	-0.000164053	0
    Cs:	-0.00432201	-0.00400031	-0.000321699	0
    Cs(f):	-0.00905459	-0.00872969	-0.000324903	0
    Cs(r):	0.00473258	0.00472937	3.20386e-06	0

    writing force and moment coefficient files.

Time = 2034

DILUPBiCG:  Solving for Ux, Initial residual = 0.000304196, Final residual = 1.94442e-05, No Iterations 2
DILUPBiCG:  Solving for Uy, Initial residual = 0.00556502, Final residual = 0.000414254, No Iterations 2
DILUPBiCG:  Solving for Uz, Initial residual = 0.00513491, Final residual = 0.000307542, No Iterations 3
DICPCG:  Solving for p, Initial residual = 0.0042158, Final residual = 0.000403254, No Iterations 13
time step continuity errors : sum local = 0.000219813, global = -5.58804e-06, cumulative = -0.00417996
smoothSolver:  Solving for omega, Initial residual = 9.18052e-05, Final residual = 5.19071e-06, No Iterations 3
bounding omega, min: -95.5391 max: 1.38506e+06 average: 688.265
smoothSolver:  Solving for k, Initial residual = 0.00138595, Final residual = 9.85968e-05, No Iterations 3
ExecutionTime = 13.94 s  ClockTime = 14 s

forceCoeffs forceCoeffs1 write:
    Coefficient	Total	Pressure	Viscous	Internal
    Cd:	0.426817	0.411416	0.0154009	0
    Cd(f):	0.212384	0.204535	0.00784895	0
    Cd(r):	0.214433	0.206881	0.00755194	0
    Cl:	0.0767641	0.0768342	-7.0028e-05	0
    Cl(f):	0.203122	0.196495	0.00662663	0
    Cl(r):	-0.126357	-0.119661	-0.00669666	0
    CmPitch:	0.16474	0.158078	0.00666164	0
    CmRoll:	-0.0010242	-0.0011727	0.000148504	0
    CmYaw:	-0.0072886	-0.00712227	-0.000166326	0
    Cs:	-0.00609467	-0.00577052	-0.000324149	0
    Cs(f):	-0.0103359	-0.0100075	-0.000328401	0
    Cs(r):	0.00424126	0.00423701	4.25174e-06	0

    writing force and moment coefficient files.

Time = 2035

DILUPBiCG:  Solving for Ux, Initial residual = 0.00030626, Final residual = 1.9644e-05, No Iterations 2
DILUPBiCG:  Solving for Uy, Initial residual = 0.00563556, Final residual = 0.000344726, No Iterations 2
DILUPBiCG:  Solving for Uz, Initial residual = 0.0051439, Final residual = 0.000450079, No Iterations 2
DICPCG:  Solving for p, Initial residual = 0.00417138, Final residual = 0.000396371, No Iterations 8
time step continuity errors : sum local = 0.000216257, global = -1.43787e-07, cumulative = -0.00418011
smoothSolver:  Solving for omega, Initial residual = 9.19162e-05, Final residual = 5.15795e-06, No Iterations 3
bounding omega, min: -93.2514 max: 1.38506e+06 average: 688.353
smoothSolver:  Solving for k, Initial residual = 0.00138143, Final residual = 9.79685e-05, No Iterations 3
ExecutionTime = 14.46 s  ClockTime = 14 s

forceCoeffs forceCoeffs1 write:
    Coefficient	Total	Pressure	Viscous	Internal
    Cd:	0.426441	0.411035	0.0154062	0
    Cd(f):	0.21232	0.204468	0.0078521	0
    Cd(r):	0.214121	0.206567	0.00755413	0
    Cl:	0.0758848	0.0759532	-6.83976e-05	0
    Cl(f):	0.202362	0.195733	0.00662819	0
    Cl(r):	-0.126477	-0.11978	-0.00669659	0
    CmPitch:	0.164419	0.157757	0.00666239	0
    CmRoll:	-0.000900421	-0.00104941	0.000148989	0
    CmYaw:	-0.0072617	-0.00709384	-0.000167861	0
    Cs:	-0.0069228	-0.00659524	-0.000327556	0
    Cs(f):	-0.0107231	-0.0103915	-0.000331638	0
    Cs(r):	0.0038003	0.00379622	4.08274e-06	0

    writing force and moment coefficient files.

Time = 2036

DILUPBiCG:  Solving for Ux, Initial residual = 0.000303269, Final residual = 1.96816e-05, No Iterations 2
DILUPBiCG:  Solving for Uy, Initial residual = 0.00542978, Final residual = 0.000350675, No Iterations 2
DILUPBiCG:  Solving for Uz, Initial residual = 0.00502528, Final residual = 0.000431053, No Iterations 2
DICPCG:  Solving for p, Initial residual = 0.00411215, Final residual = 0.000410063, No Iterations 12
time step continuity errors : sum local = 0.000223853, global = 5.77277e-06, cumulative = -0.00417434
smoothSolver:  Solving for omega, Initial residual = 9.17562e-05, Final residual = 5.16842e-06, No Iterations 3
bounding omega, min: -95.7484 max: 1.38506e+06 average: 688.408
smoothSolver:  Solving for k, Initial residual = 0.00137229, Final residual = 9.75154e-05, No Iterations 3
ExecutionTime = 14.97 s  ClockTime = 15 s

forceCoeffs forceCoeffs1 write:
    Coefficient	Total	Pressure	Viscous	Internal
    Cd:	0.425815	0.410403	0.0154119	0
    Cd(f):	0.212157	0.204301	0.00785582	0
    Cd(r):	0.213658	0.206102	0.00755604	0
    Cl:	0.0758967	0.0759652	-6.85014e-05	0
    Cl(f):	0.201196	0.194566	0.00663013	0
    Cl(r):	-0.125299	-0.118601	-0.00669863	0
    CmPitch:	0.163248	0.156583	0.00666438	0
    CmRoll:	-0.000750479	-0.000900369	0.00014989	0
    CmYaw:	-0.00729479	-0.00712501	-0.000169778	0
    Cs:	-0.00809907	-0.00776703	-0.000332041	0
    Cs(f):	-0.0113443	-0.0110085	-0.000335798	0
    Cs(r):	0.00324525	0.00324149	3.75766e-06	0

    writing force and moment coefficient files.

Time = 2037

DILUPBiCG:  Solving for Ux, Initial residual = 0.000306158, Final residual = 1.97058e-05, No Iterations 2
DILUPBiCG:  Solving for Uy, Initial residual = 0.00556835, Final residual = 0.00036469, No Iterations 2
DILUPBiCG:  Solving for Uz, Initial residual = 0.00514622, Final residual = 0.000469306, No Iterations 2
DICPCG:  Solving for p, Initial residual = 0.00412698, Final residual = 0.000394976, No Iterations 9
time step continuity errors : sum local = 0.000215949, global = 1.19328e-05, cumulative = -0.0041624
smoothSolver:  Solving for omega, Initial residual = 9.1457e-05, Final residual = 5.1599e-06, No Iterations 3
bounding omega, min: -99.3078 max: 1.38506e+06 average: 688.499
smoothSolver:  Solving for k, Initial residual = 0.001362, Final residual = 9.74222e-05, No Iterations 3
ExecutionTime = 15.42 s  ClockTime = 15 s

forceCoeffs forceCoeffs1 write:
    Coefficient	Total	Pressure	Viscous	Internal
    Cd:	0.425243	0.409825	0.0154179	0
    Cd(f):	0.212021	0.20416	0.00786101	0
    Cd(r):	0.213222	0.205665	0.00755691	0
    Cl:	0.0756697	0.0757398	-7.00254e-05	0
    Cl(f):	0.200506	0.193873	0.00663313	0
    Cl(r):	-0.124836	-0.118133	-0.00670315	0
    CmPitch:	0.162671	0.156003	0.00666814	0
    CmRoll:	-0.000600324	-0.000752374	0.00015205	0
    CmYaw:	-0.00716836	-0.0069973	-0.000171066	0
    Cs:	-0.00873155	-0.00839433	-0.000337214	0
    Cs(f):	-0.0115341	-0.0111945	-0.000339673	0
    Cs(r):	0.00280259	0.00280013	2.45917e-06	0

    writing force and moment coefficient files.

Time = 2038

DILUPBiCG:  Solving for Ux, Initial residual = 0.000302792, Final residual = 1.98885e-05, No Iterations 2
DILUPBiCG:  Solving for Uy, Initial residual = 0.00538782, Final residual = 0.000421973, No Iterations 2
DILUPBiCG:  Solving for Uz, Initial residual = 0.00505978, Final residual = 0.000474637, No Iterations 2
DICPCG:  Solving for p, Initial residual = 0.00409577, Final residual = 0.000409563, No Iterations 11
time step continuity errors : sum local = 0.000224193, global = 1.70199e-05, cumulative = -0.00414538
smoothSolver:  Solving for omega, Initial residual = 9.10093e-05, Final residual = 5.19552e-06, No Iterations 3
bounding omega, min: -103.873 max: 1.38506e+06 average: 688.554
smoothSolver:  Solving for k, Initial residual = 0.00135222, Final residual = 9.74085e-05, No Iterations 3
ExecutionTime = 15.84 s  ClockTime = 15 s

forceCoeffs forceCoeffs1 write:
    Coefficient	Total	Pressure	Viscous	Internal
    Cd:	0.424368	0.408948	0.0154202	0
    Cd(f):	0.211654	0.20379	0.00786469	0
    Cd(r):	0.212713	0.205158	0.00755555	0
    Cl:	0.0762837	0.076355	-7.12809e-05	0
    Cl(f):	0.19964	0.193003	0.00663717	0
    Cl(r):	-0.123356	-0.116648	-0.00670845	0
    CmPitch:	0.161498	0.154825	0.00667281	0
    CmRoll:	-0.000529534	-0.000684102	0.000154568	0
    CmYaw:	-0.00680501	-0.006634	-0.000171019	0
    Cs:	-0.00866457	-0.0083221	-0.000342465	0
    Cs(f):	-0.0111373	-0.010795	-0.000342252	0
    Cs(r):	0.00247273	0.00247295	-2.13414e-07	0

    writing force and moment coefficient files.

Time = 2039

DILUPBiCG:  Solving for Ux, Initial residual = 0.000303979, Final residual = 2.23494e-05, No Iterations 2
DILUPBiCG:  Solving for Uy, Initial residual = 0.00547577, Final residual = 0.000513181, No Iterations 2
DILUPBiCG:  Solving for Uz, Initial residual = 0.00512916, Final residual = 0.00048256, No Iterations 2
DICPCG:  Solving for p, Initial residual = 0.00410906, Final residual = 0.000390747, No Iterations 10
time step continuity errors : sum local = 0.000214274, global = 2.27969e-05, cumulative = -0.00412259
smoothSolver:  Solving for omega, Initial residual = 9.08357e-05, Final residual = 5.20519e-06, No Iterations 3
bounding omega, min: -108.253 max: 1.38506e+06 average: 688.612
smoothSolver:  Solving for k, Initial residual = 0.00134768, Final residual = 9.73135e-05, No Iterations 3
ExecutionTime = 16.24 s  ClockTime = 16 s

forceCoeffs forceCoeffs1 write:
    Coefficient	Total	Pressure	Viscous	Internal
    Cd:	0.423648	0.408224	0.0154236	0
    Cd(f):	0.211324	0.203454	0.00786939	0
    Cd(r):	0.212324	0.20477	0.00755419	0
    Cl:	0.076883	0.0769572	-7.41334e-05	0
    Cl(f):	0.199276	0.192633	0.00664219	0
    Cl(r):	-0.122393	-0.115676	-0.00671633	0
    CmPitch:	0.160834	0.154155	0.00667926	0
    CmRoll:	-0.000500226	-0.000657826	0.000157599	0
    CmYaw:	-0.00647443	-0.00630375	-0.000170676	0
    Cs:	-0.00825468	-0.00790759	-0.000347088	0
    Cs(f):	-0.0106018	-0.0102576	-0.00034422	0
    Cs(r):	0.00234709	0.00234996	-2.86752e-06	0

    writing force and moment coefficient files.

Time = 2040

DILUPBiCG:  Solving for Ux, Initial residual = 0.000300783, Final residual = 3.70927e-06, No Iterations 3
DILUPBiCG:  Solving for Uy, Initial residual = 0.00539219, Final residual = 0.000514848, No Iterations 2
DILUPBiCG:  Solving for Uz, Initial residual = 0.00507798, Final residual = 0.000469503, No Iterations 2
DICPCG:  Solving for p, Initial residual = 0.00409157, Final residual = 0.000398683, No Iterations 14
time step continuity errors : sum local = 0.000218929, global = 2.65463e-05, cumulative = -0.00409604
smoothSolver:  Solving for omega, Initial residual = 9.03316e-05, Final residual = 5.16514e-06, No Iterations 3
bounding omega, min: -112.789 max: 1.38506e+06 average: 688.65
smoothSolver:  Solving for k, Initial residual = 0.00133429, Final residual = 9.65152e-05, No Iterations 3
ExecutionTime = 16.69 s  ClockTime = 16 s

forceCoeffs forceCoeffs1 write:
    Coefficient	Total	Pressure	Viscous	Internal
    Cd:	0.42281	0.407383	0.0154265	0
    Cd(f):	0.210701	0.202827	0.00787306	0
    Cd(r):	0.212109	0.204556	0.00755341	0
    Cl:	0.0780677	0.0781439	-7.62183e-05	0
    Cl(f):	0.198953	0.192304	0.00664858	0
    Cl(r):	-0.120885	-0.11416	-0.0067248	0
    CmPitch:	0.159919	0.153232	0.00668669	0
    CmRoll:	-0.00070443	-0.000864257	0.000159827	0
    CmYaw:	-0.00564979	-0.00548108	-0.00016871	0
    Cs:	-0.00663221	-0.00628408	-0.000348124	0
    Cs(f):	-0.00896589	-0.00862312	-0.000342772	0
    Cs(r):	0.00233369	0.00233904	-5.35179e-06	0

    writing force and moment coefficient files.

Time = 2041

DILUPBiCG:  Solving for Ux, Initial residual = 0.000302311, Final residual = 3.95126e-06, No Iterations 3
DILUPBiCG:  Solving for Uy, Initial residual = 0.00554461, Final residual = 0.000502749, No Iterations 2
DILUPBiCG:  Solving for Uz, Initial residual = 0.00515215, Final residual = 0.000482233, No Iterations 2
DICPCG:  Solving for p, Initial residual = 0.00414964, Final residual = 0.000373674, No Iterations 8
time step continuity errors : sum local = 0.000205603, global = 3.16973e-05, cumulative = -0.00406434
smoothSolver:  Solving for omega, Initial residual = 9.02446e-05, Final residual = 5.11365e-06, No Iterations 3
bounding omega, min: -113.877 max: 1.38506e+06 average: 688.714
smoothSolver:  Solving for k, Initial residual = 0.00132118, Final residual = 9.54603e-05, No Iterations 3
ExecutionTime = 17.1 s  ClockTime = 17 s

forceCoeffs forceCoeffs1 write:
    Coefficient	Total	Pressure	Viscous	Internal
    Cd:	0.422457	0.407027	0.0154293	0
    Cd(f):	0.210456	0.202578	0.00787715	0
    Cd(r):	0.212001	0.204449	0.00755211	0
    Cl:	0.0790248	0.0791032	-7.83653e-05	0
    Cl(f):	0.199078	0.192422	0.00665542	0
    Cl(r):	-0.120053	-0.113319	-0.00673378	0
    CmPitch:	0.159565	0.152871	0.0066946	0
    CmRoll:	-0.000772747	-0.000935266	0.000162519	0
    CmYaw:	-0.00556286	-0.00539555	-0.000167305	0
    Cs:	-0.00613498	-0.00578458	-0.000350403	0
    Cs(f):	-0.00863035	-0.00828784	-0.000342506	0
    Cs(r):	0.00249536	0.00250326	-7.8964e-06	0

    writing force and moment coefficient files.

Time = 2042

DILUPBiCG:  Solving for Ux, Initial residual = 0.000298291, Final residual = 4.24457e-06, No Iterations 3
DILUPBiCG:  Solving for Uy, Initial residual = 0.00535501, Final residual = 0.000456696, No Iterations 2
DILUPBiCG:  Solving for Uz, Initial residual = 0.00505298, Final residual = 0.000423704, No Iterations 2
DICPCG:  Solving for p, Initial residual = 0.00411803, Final residual = 0.000408976, No Iterations 18
time step continuity errors : sum local = 0.000225182, global = 2.91523e-05, cumulative = -0.00403519
smoothSolver:  Solving for omega, Initial residual = 9.06361e-05, Final residual = 5.03665e-06, No Iterations 3
bounding omega, min: -108.681 max: 1.38506e+06 average: 688.693
smoothSolver:  Solving for k, Initial residual = 0.00131268, Final residual = 9.40629e-05, No Iterations 3
ExecutionTime = 17.55 s  ClockTime = 17 s

forceCoeffs forceCoeffs1 write:
    Coefficient	Total	Pressure	Viscous	Internal
    Cd:	0.421368	0.405936	0.0154321	0
    Cd(f):	0.209448	0.201568	0.00787953	0
    Cd(r):	0.21192	0.204368	0.00755258	0
    Cl:	0.0797358	0.0798156	-7.98286e-05	0
    Cl(f):	0.199037	0.192374	0.00666206	0
    Cl(r):	-0.119301	-0.112559	-0.00674189	0
    CmPitch:	0.159169	0.152467	0.00670197	0
    CmRoll:	-0.00123637	-0.00139984	0.000163477	0
    CmYaw:	-0.00478289	-0.00461861	-0.000164278	0
    Cs:	-0.00351882	-0.00317133	-0.000347486	0
    Cs(f):	-0.0065423	-0.00620428	-0.000338022	0
    Cs(r):	0.00302348	0.00303294	-9.4647e-06	0

    writing force and moment coefficient files.

Time = 2043

DILUPBiCG:  Solving for Ux, Initial residual = 0.000307433, Final residual = 4.73836e-06, No Iterations 3
DILUPBiCG:  Solving for Uy, Initial residual = 0.00584843, Final residual = 0.000475093, No Iterations 2
DILUPBiCG:  Solving for Uz, Initial residual = 0.00531924, Final residual = 0.000438773, No Iterations 2
DICPCG:  Solving for p, Initial residual = 0.00427692, Final residual = 0.000379951, No Iterations 8
time step continuity errors : sum local = 0.00020942, global = 2.61972e-05, cumulative = -0.00400899
smoothSolver:  Solving for omega, Initial residual = 9.08677e-05, Final residual = 4.99912e-06, No Iterations 3
bounding omega, min: -109.28 max: 1.38506e+06 average: 688.663
smoothSolver:  Solving for k, Initial residual = 0.00130726, Final residual = 9.29583e-05, No Iterations 3
ExecutionTime = 18 s  ClockTime = 18 s

forceCoeffs forceCoeffs1 write:
    Coefficient	Total	Pressure	Viscous	Internal
    Cd:	0.421231	0.405794	0.0154368	0
    Cd(f):	0.209354	0.201471	0.00788306	0
    Cd(r):	0.211878	0.204324	0.00755374	0
    Cl:	0.0810313	0.0811125	-8.11802e-05	0
    Cl(f):	0.199446	0.192778	0.00666733	0
    Cl(r):	-0.118414	-0.111666	-0.00674851	0
    CmPitch:	0.15893	0.152222	0.00670792	0
    CmRoll:	-0.00126196	-0.00142662	0.000164658	0
    CmYaw:	-0.00483841	-0.00467596	-0.000162455	0
    Cs:	-0.00330439	-0.00295841	-0.000345984	0
    Cs(f):	-0.00649061	-0.00615516	-0.000335447	0
    Cs(r):	0.00318621	0.00319675	-1.05371e-05	0

    writing force and moment coefficient files.

Time = 2044

DILUPBiCG:  Solving for Ux, Initial residual = 0.000302956, Final residual = 6.73705e-06, No Iterations 3
DILUPBiCG:  Solving for Uy, Initial residual = 0.00564315, Final residual = 0.000423569, No Iterations 2
DILUPBiCG:  Solving for Uz, Initial residual = 0.00522012, Final residual = 0.000381995, No Iterations 2
DICPCG:  Solving for p, Initial residual = 0.00419402, Final residual = 0.000411028, No Iterations 11
time step continuity errors : sum local = 0.000226598, global = 2.08065e-05, cumulative = -0.00398819
smoothSolver:  Solving for omega, Initial residual = 9.17058e-05, Final residual = 5.05572e-06, No Iterations 3
bounding omega, min: -108.916 max: 1.38506e+06 average: 688.62
smoothSolver:  Solving for k, Initial residual = 0.00130286, Final residual = 9.20291e-05, No Iterations 3
ExecutionTime = 18.48 s  ClockTime = 18 s

forceCoeffs forceCoeffs1 write:
    Coefficient	Total	Pressure	Viscous	Internal
    Cd:	0.421027	0.405585	0.015442	0
    Cd(f):	0.2093	0.201414	0.00788615	0
    Cd(r):	0.211727	0.204171	0.00755587	0
    Cl:	0.0819581	0.0820407	-8.26229e-05	0
    Cl(f):	0.200009	0.193338	0.00667077	0
    Cl(r):	-0.118051	-0.111298	-0.00675339	0
    CmPitch:	0.15903	0.152318	0.00671208	0
    CmRoll:	-0.00121323	-0.00137837	0.000165139	0
    CmYaw:	-0.00492869	-0.00476707	-0.000161627	0
    Cs:	-0.00294707	-0.00260346	-0.000343619	0
    Cs(f):	-0.00640223	-0.00606879	-0.000333436	0
    Cs(r):	0.00345516	0.00346534	-1.01822e-05	0

    writing force and moment coefficient files.

Time = 2045

DILUPBiCG:  Solving for Ux, Initial residual = 0.000302786, Final residual = 7.23921e-06, No Iterations 3
DILUPBiCG:  Solving for Uy, Initial residual = 0.00569721, Final residual = 0.000417708, No Iterations 2
DILUPBiCG:  Solving for Uz, Initial residual = 0.00522754, Final residual = 0.000345563, No Iterations 2
DICPCG:  Solving for p, Initial residual = 0.00418001, Final residual = 0.000406558, No Iterations 13
time step continuity errors : sum local = 0.000224054, global = 1.38551e-05, cumulative = -0.00397433
smoothSolver:  Solving for omega, Initial residual = 9.2281e-05, Final residual = 5.18183e-06, No Iterations 3
bounding omega, min: -108.506 max: 1.38506e+06 average: 688.597
smoothSolver:  Solving for k, Initial residual = 0.00130097, Final residual = 9.20193e-05, No Iterations 3
ExecutionTime = 18.93 s  ClockTime = 19 s

forceCoeffs forceCoeffs1 write:
    Coefficient	Total	Pressure	Viscous	Internal
    Cd:	0.420918	0.405471	0.0154469	0
    Cd(f):	0.209284	0.201395	0.00788885	0
    Cd(r):	0.211634	0.204076	0.00755802	0
    Cl:	0.082301	0.0823831	-8.21177e-05	0
    Cl(f):	0.200749	0.194076	0.00667321	0
    Cl(r):	-0.118448	-0.111693	-0.00675533	0
    CmPitch:	0.159599	0.152884	0.00671427	0
    CmRoll:	-0.00117518	-0.0013406	0.000165418	0
    CmYaw:	-0.00520792	-0.00504696	-0.000160959	0
    Cs:	-0.0026861	-0.00234443	-0.000341673	0
    Cs(f):	-0.00655097	-0.00621917	-0.000331795	0
    Cs(r):	0.00386487	0.00387474	-9.87808e-06	0

    writing force and moment coefficient files.

Time = 2046

DILUPBiCG:  Solving for Ux, Initial residual = 0.000304092, Final residual = 7.91863e-06, No Iterations 3
DILUPBiCG:  Solving for Uy, Initial residual = 0.00575084, Final residual = 0.000408834, No Iterations 2
DILUPBiCG:  Solving for Uz, Initial residual = 0.00519617, Final residual = 0.000317003, No Iterations 2
DICPCG:  Solving for p, Initial residual = 0.00420058, Final residual = 0.000388494, No Iterations 8
time step continuity errors : sum local = 0.000213907, global = 5.97282e-06, cumulative = -0.00396836
smoothSolver:  Solving for omega, Initial residual = 9.21685e-05, Final residual = 5.32914e-06, No Iterations 3
bounding omega, min: -108.924 max: 1.38506e+06 average: 688.533
smoothSolver:  Solving for k, Initial residual = 0.00129962, Final residual = 9.24782e-05, No Iterations 3
ExecutionTime = 19.42 s  ClockTime = 19 s

forceCoeffs forceCoeffs1 write:
    Coefficient	Total	Pressure	Viscous	Internal
    Cd:	0.421159	0.40571	0.0154494	0
    Cd(f):	0.2094	0.201512	0.00788897	0
    Cd(r):	0.211759	0.204198	0.00756045	0
    Cl:	0.0829764	0.0830586	-8.2134e-05	0
    Cl(f):	0.201365	0.194692	0.00667327	0
    Cl(r):	-0.118389	-0.111634	-0.00675541	0
    CmPitch:	0.159877	0.153163	0.00671434	0
    CmRoll:	-0.00117918	-0.00134344	0.000164261	0
    CmYaw:	-0.00542637	-0.00526567	-0.0001607	0
    Cs:	-0.00263074	-0.00229218	-0.000338566	0
    Cs(f):	-0.00674174	-0.00641176	-0.000329983	0
    Cs(r):	0.004111	0.00411958	-8.58303e-06	0

    writing force and moment coefficient files.

Time = 2047

DILUPBiCG:  Solving for Ux, Initial residual = 0.000300487, Final residual = 6.38047e-06, No Iterations 3
DILUPBiCG:  Solving for Uy, Initial residual = 0.00554961, Final residual = 0.000374975, No Iterations 2
DILUPBiCG:  Solving for Uz, Initial residual = 0.00505988, Final residual = 0.00028912, No Iterations 2
DICPCG:  Solving for p, Initial residual = 0.00415441, Final residual = 0.00040574, No Iterations 12
time step continuity errors : sum local = 0.000223253, global = -1.65942e-06, cumulative = -0.00397002
smoothSolver:  Solving for omega, Initial residual = 9.25431e-05, Final residual = 5.40721e-06, No Iterations 3
bounding omega, min: -108.345 max: 1.38506e+06 average: 688.462
smoothSolver:  Solving for k, Initial residual = 0.00130621, Final residual = 9.30737e-05, No Iterations 3
ExecutionTime = 19.85 s  ClockTime = 19 s

forceCoeffs forceCoeffs1 write:
    Coefficient	Total	Pressure	Viscous	Internal
    Cd:	0.421358	0.405909	0.0154485	0
    Cd(f):	0.209766	0.201879	0.00788771	0
    Cd(r):	0.211591	0.20403	0.00756075	0
    Cl:	0.0828301	0.0829103	-8.02511e-05	0
    Cl(f):	0.202316	0.195644	0.00667173	0
    Cl(r):	-0.119486	-0.112734	-0.00675198	0
    CmPitch:	0.160901	0.154189	0.00671186	0
    CmRoll:	-0.000912287	-0.00107577	0.000163483	0
    CmYaw:	-0.00597604	-0.0058139	-0.000162135	0
    Cs:	-0.00373863	-0.00340193	-0.000336694	0
    Cs(f):	-0.00784535	-0.00751487	-0.000330481	0
    Cs(r):	0.00410673	0.00411294	-6.21204e-06	0

    writing force and moment coefficient files.

Time = 2048

DILUPBiCG:  Solving for Ux, Initial residual = 0.000302663, Final residual = 1.25188e-06, No Iterations 4
DILUPBiCG:  Solving for Uy, Initial residual = 0.00569401, Final residual = 0.000359282, No Iterations 2
DILUPBiCG:  Solving for Uz, Initial residual = 0.0051143, Final residual = 0.000458677, No Iterations 2
DICPCG:  Solving for p, Initial residual = 0.00420874, Final residual = 0.000404996, No Iterations 9
time step continuity errors : sum local = 0.000222543, global = -1.01794e-05, cumulative = -0.0039802
smoothSolver:  Solving for omega, Initial residual = 9.26831e-05, Final residual = 5.35669e-06, No Iterations 3
bounding omega, min: -106.112 max: 1.38506e+06 average: 688.393
smoothSolver:  Solving for k, Initial residual = 0.0013173, Final residual = 9.32696e-05, No Iterations 3
ExecutionTime = 20.27 s  ClockTime = 20 s

forceCoeffs forceCoeffs1 write:
    Coefficient	Total	Pressure	Viscous	Internal
    Cd:	0.421721	0.406278	0.0154427	0
    Cd(f):	0.210082	0.202199	0.00788296	0
    Cd(r):	0.211638	0.204079	0.0075597	0
    Cl:	0.0828923	0.0829713	-7.90151e-05	0
    Cl(f):	0.202866	0.196198	0.00666754	0
    Cl(r):	-0.119973	-0.113227	-0.00674656	0
    CmPitch:	0.161419	0.154712	0.00670705	0
    CmRoll:	-0.000778157	-0.000939789	0.000161632	0
    CmYaw:	-0.00620663	-0.00604338	-0.000163251	0
    Cs:	-0.00452382	-0.00418922	-0.000334603	0
    Cs(f):	-0.00846854	-0.00813798	-0.000330553	0
    Cs(r):	0.00394472	0.00394877	-4.05e-06	0

    writing force and moment coefficient files.

Time = 2049

DILUPBiCG:  Solving for Ux, Initial residual = 0.000298956, Final residual = 2.70653e-05, No Iterations 2
DILUPBiCG:  Solving for Uy, Initial residual = 0.0055552, Final residual = 0.000336061, No Iterations 2
DILUPBiCG:  Solving for Uz, Initial residual = 0.00497102, Final residual = 0.000378535, No Iterations 2
DICPCG:  Solving for p, Initial residual = 0.00411954, Final residual = 0.000395548, No Iterations 12
time step continuity errors : sum local = 0.000217116, global = -1.67442e-05, cumulative = -0.00399694
smoothSolver:  Solving for omega, Initial residual = 9.18261e-05, Final residual = 5.20549e-06, No Iterations 3
bounding omega, min: -107.506 max: 1.38506e+06 average: 688.385
smoothSolver:  Solving for k, Initial residual = 0.00131876, Final residual = 9.3029e-05, No Iterations 3
ExecutionTime = 20.7 s  ClockTime = 20 s

forceCoeffs forceCoeffs1 write:
    Coefficient	Total	Pressure	Viscous	Internal
    Cd:	0.422	0.406567	0.0154325	0
    Cd(f):	0.210645	0.202768	0.0078765	0
    Cd(r):	0.211355	0.203799	0.00755604	0
    Cl:	0.0820022	0.0820811	-7.88433e-05	0
    Cl(f):	0.203392	0.196732	0.00666041	0
    Cl(r):	-0.12139	-0.114651	-0.00673926	0
    CmPitch:	0.162391	0.155691	0.00669983	0
    CmRoll:	-0.000355212	-0.000515439	0.000160227	0
    CmYaw:	-0.00672951	-0.00656377	-0.000165742	0
    Cs:	-0.00666704	-0.0063315	-0.000335534	0
    Cs(f):	-0.010063	-0.00972952	-0.000333509	0
    Cs(r):	0.00339599	0.00339802	-2.02526e-06	0

    writing force and moment coefficient files.

Time = 2050

DILUPBiCG:  Solving for Ux, Initial residual = 0.000300682, Final residual = 2.33912e-05, No Iterations 2
DILUPBiCG:  Solving for Uy, Initial residual = 0.00563662, Final residual = 2.29345e-05, No Iterations 4
DILUPBiCG:  Solving for Uz, Initial residual = 0.00503285, Final residual = 6.83022e-05, No Iterations 3
DICPCG:  Solving for p, Initial residual = 0.00414275, Final residual = 0.000368685, No Iterations 9
time step continuity errors : sum local = 0.000202073, global = -2.44027e-05, cumulative = -0.00402134
smoothSolver:  Solving for omega, Initial residual = 9.15993e-05, Final residual = 5.10974e-06, No Iterations 3
bounding omega, min: -108.681 max: 1.38506e+06 average: 688.371
smoothSolver:  Solving for k, Initial residual = 0.00131958, Final residual = 9.32673e-05, No Iterations 3
ExecutionTime = 21.12 s  ClockTime = 21 s

forceCoeffs forceCoeffs1 write:
    Coefficient	Total	Pressure	Viscous	Internal
    Cd:	0.422395	0.406975	0.0154195	0
    Cd(f):	0.210996	0.203128	0.00786775	0
    Cd(r):	0.211399	0.203847	0.00755171	0
    Cl:	0.0814663	0.0815472	-8.08413e-05	0
    Cl(f):	0.203584	0.196933	0.00665114	0
    Cl(r):	-0.122118	-0.115386	-0.00673198	0
    CmPitch:	0.162851	0.15616	0.00669156	0
    CmRoll:	-0.000201303	-0.000359318	0.000158016	0
    CmYaw:	-0.00673049	-0.00656338	-0.000167108	0
    Cs:	-0.00772856	-0.00739212	-0.000336444	0
    Cs(f):	-0.0105948	-0.0102594	-0.000335329	0
    Cs(r):	0.00286621	0.00286732	-1.11414e-06	0

    writing force and moment coefficient files.

Time = 2051

DILUPBiCG:  Solving for Ux, Initial residual = 0.000297885, Final residual = 2.11417e-05, No Iterations 2
DILUPBiCG:  Solving for Uy, Initial residual = 0.0054304, Final residual = 0.000370101, No Iterations 2
DILUPBiCG:  Solving for Uz, Initial residual = 0.00497689, Final residual = 6.53469e-05, No Iterations 3
DICPCG:  Solving for p, Initial residual = 0.00409955, Final residual = 0.000404237, No Iterations 12
[...]
DILUPBiCG:  Solving for Uy, Initial residual = 0.00606486, Final residual = 0.000418497, No Iterations 3
DILUPBiCG:  Solving for Uz, Initial residual = 0.00577677, Final residual = 0.000469617, No Iterations 2
DICPCG:  Solving for p, Initial residual = 0.00444937, Final residual = 0.0004271, No Iterations 11
time step continuity errors : sum local = 0.000233259, global = -2.32583e-05, cumulative = -0.00295924
smoothSolver:  Solving for omega, Initial residual = 0.000100831, Final residual = 5.78144e-06, No Iterations 3
bounding omega, min: -149.015 max: 1.38506e+06 average: 688.123
smoothSolver:  Solving for k, Initial residual = 0.00148038, Final residual = 0.000104315, No Iterations 3
ExecutionTime = 422.59 s  ClockTime = 422 s

forceCoeffs forceCoeffs1 write:
    Coefficient	Total	Pressure	Viscous	Internal
    Cd:	0.42444	0.409124	0.0153164	0
    Cd(f):	0.211384	0.203587	0.00779651	0
    Cd(r):	0.213057	0.205537	0.00751994	0
    Cl:	0.0755749	0.0756831	-0.000108186	0
    Cl(f):	0.202727	0.196136	0.00659117	0
    Cl(r):	-0.127152	-0.120453	-0.00669936	0
    CmPitch:	0.16494	0.158294	0.00664527	0
    CmRoll:	-0.000836542	-0.000974824	0.000138283	0
    CmYaw:	-0.00550607	-0.00534353	-0.000162537	0
    Cs:	-0.00648247	-0.00615865	-0.000323818	0
    Cs(f):	-0.00874731	-0.00842286	-0.000324446	0
    Cs(r):	0.00226484	0.00226421	6.28147e-07	0

    writing force and moment coefficient files.

Time = 3079

DILUPBiCG:  Solving for Ux, Initial residual = 0.000326568, Final residual = 2.98389e-05, No Iterations 2
DILUPBiCG:  Solving for Uy, Initial residual = 0.005976, Final residual = 0.000526308, No Iterations 2
DILUPBiCG:  Solving for Uz, Initial residual = 0.00578863, Final residual = 0.000470033, No Iterations 2
DICPCG:  Solving for p, Initial residual = 0.00444167, Final residual = 0.000431394, No Iterations 12
time step continuity errors : sum local = 0.000235683, global = -1.55083e-05, cumulative = -0.00297475
smoothSolver:  Solving for omega, Initial residual = 0.000101044, Final residual = 5.73738e-06, No Iterations 3
bounding omega, min: -148.372 max: 1.38506e+06 average: 688.197
smoothSolver:  Solving for k, Initial residual = 0.00148575, Final residual = 0.000103619, No Iterations 3
ExecutionTime = 422.97 s  ClockTime = 423 s

forceCoeffs forceCoeffs1 write:
    Coefficient	Total	Pressure	Viscous	Internal
    Cd:	0.424893	0.409581	0.0153124	0
    Cd(f):	0.210989	0.203199	0.0077909	0
    Cd(r):	0.213904	0.206383	0.00752146	0
    Cl:	0.0754747	0.0755828	-0.000108085	0
    Cl(f):	0.202432	0.19584	0.00659123	0
    Cl(r):	-0.126957	-0.120257	-0.00669932	0
    CmPitch:	0.164694	0.158049	0.00664527	0
    CmRoll:	-0.00145732	-0.00159204	0.000134719	0
    CmYaw:	-0.00484953	-0.0046916	-0.000157935	0
    Cs:	-0.00444786	-0.00413176	-0.000316106	0
    Cs(f):	-0.00707347	-0.00675748	-0.000315988	0
    Cs(r):	0.0026256	0.00262572	-1.17941e-07	0

    writing force and moment coefficient files.

Time = 3080

DILUPBiCG:  Solving for Ux, Initial residual = 0.000328648, Final residual = 2.82335e-05, No Iterations 2
DILUPBiCG:  Solving for Uy, Initial residual = 0.00609759, Final residual = 0.00055571, No Iterations 2
DILUPBiCG:  Solving for Uz, Initial residual = 0.00585778, Final residual = 0.000516933, No Iterations 2
DICPCG:  Solving for p, Initial residual = 0.00445452, Final residual = 0.000433063, No Iterations 11
time step continuity errors : sum local = 0.000236728, global = -6.89972e-06, cumulative = -0.00298165
smoothSolver:  Solving for omega, Initial residual = 0.00010103, Final residual = 5.69957e-06, No Iterations 3
bounding omega, min: -146.17 max: 1.38506e+06 average: 688.191
smoothSolver:  Solving for k, Initial residual = 0.0014845, Final residual = 0.00010345, No Iterations 3
ExecutionTime = 423.35 s  ClockTime = 423 s

forceCoeffs forceCoeffs1 write:
    Coefficient	Total	Pressure	Viscous	Internal
    Cd:	0.424968	0.409655	0.0153133	0
    Cd(f):	0.210595	0.202808	0.00778787	0
    Cd(r):	0.214373	0.206848	0.00752539	0
    Cl:	0.0755454	0.0756527	-0.000107307	0
    Cl(f):	0.202089	0.195495	0.00659371	0
    Cl(r):	-0.126543	-0.119842	-0.00670101	0
    CmPitch:	0.164316	0.157669	0.00664736	0
    CmRoll:	-0.00188878	-0.00202002	0.00013124	0
    CmYaw:	-0.00449563	-0.00434189	-0.000153741	0
    Cs:	-0.0029387	-0.00263035	-0.000308349	0
    Cs(f):	-0.00596498	-0.00565706	-0.000307916	0
    Cs(r):	0.00302628	0.00302671	-4.32835e-07	0

    writing force and moment coefficient files.

Time = 3081

DILUPBiCG:  Solving for Ux, Initial residual = 0.00032776, Final residual = 2.65932e-05, No Iterations 2
DILUPBiCG:  Solving for Uy, Initial residual = 0.00611484, Final residual = 0.000457151, No Iterations 2
DILUPBiCG:  Solving for Uz, Initial residual = 0.00587004, Final residual = 0.000560416, No Iterations 2
DICPCG:  Solving for p, Initial residual = 0.00443657, Final residual = 0.000436674, No Iterations 10
time step continuity errors : sum local = 0.000238837, global = 1.25077e-06, cumulative = -0.00298039
smoothSolver:  Solving for omega, Initial residual = 0.000100671, Final residual = 5.65674e-06, No Iterations 3
bounding omega, min: -143.68 max: 1.38506e+06 average: 688.237
smoothSolver:  Solving for k, Initial residual = 0.00147685, Final residual = 0.000103247, No Iterations 3
ExecutionTime = 423.72 s  ClockTime = 424 s

forceCoeffs forceCoeffs1 write:
    Coefficient	Total	Pressure	Viscous	Internal
    Cd:	0.424839	0.409518	0.0153208	0
    Cd(f):	0.210162	0.202373	0.00778933	0
    Cd(r):	0.214677	0.207145	0.00753143	0
    Cl:	0.0759855	0.0760911	-0.000105562	0
    Cl(f):	0.201719	0.195121	0.00659798	0
    Cl(r):	-0.125733	-0.11903	-0.00670355	0
    CmPitch:	0.163726	0.157075	0.00665076	0
    CmRoll:	-0.00225721	-0.00238616	0.000128947	0
    CmYaw:	-0.00432658	-0.00417607	-0.000150512	0
    Cs:	-0.00175889	-0.00145771	-0.000301182	0
    Cs(f):	-0.00520602	-0.00490492	-0.000301104	0
    Cs(r):	0.00344713	0.00344721	-7.88606e-08	0

    writing force and moment coefficient files.

Time = 3082

DILUPBiCG:  Solving for Ux, Initial residual = 0.000325975, Final residual = 2.57859e-05, No Iterations 2
DILUPBiCG:  Solving for Uy, Initial residual = 0.00612666, Final residual = 0.000450999, No Iterations 2
DILUPBiCG:  Solving for Uz, Initial residual = 0.00583127, Final residual = 0.000575129, No Iterations 2
DICPCG:  Solving for p, Initial residual = 0.00444969, Final residual = 0.000417579, No Iterations 12
time step continuity errors : sum local = 0.000228523, global = 8.24625e-06, cumulative = -0.00297215
smoothSolver:  Solving for omega, Initial residual = 0.000100909, Final residual = 5.68445e-06, No Iterations 3
bounding omega, min: -141.188 max: 1.38506e+06 average: 688.219
smoothSolver:  Solving for k, Initial residual = 0.00147566, Final residual = 0.000103678, No Iterations 3
ExecutionTime = 424.13 s  ClockTime = 424 s

forceCoeffs forceCoeffs1 write:
    Coefficient	Total	Pressure	Viscous	Internal
    Cd:	0.42466	0.409326	0.0153341	0
    Cd(f):	0.209726	0.201932	0.00779399	0
    Cd(r):	0.214934	0.207393	0.00754014	0
    Cl:	0.0770658	0.077168	-0.000102226	0
    Cl(f):	0.201432	0.194827	0.00660505	0
    Cl(r):	-0.124366	-0.117659	-0.00670728	0
    CmPitch:	0.162899	0.156243	0.00665617	0
    CmRoll:	-0.00260367	-0.00273059	0.000126927	0
    CmYaw:	-0.00438144	-0.00423278	-0.000148661	0
    Cs:	-0.000678808	-0.000384778	-0.00029403	0
    Cs(f):	-0.00472084	-0.00442517	-0.000295676	0
    Cs(r):	0.00404204	0.00404039	1.64569e-06	0

    writing force and moment coefficient files.

Time = 3083

DILUPBiCG:  Solving for Ux, Initial residual = 0.000326465, Final residual = 2.60683e-05, No Iterations 2
DILUPBiCG:  Solving for Uy, Initial residual = 0.00625094, Final residual = 0.000471246, No Iterations 2
DILUPBiCG:  Solving for Uz, Initial residual = 0.00581221, Final residual = 0.000564027, No Iterations 2
DICPCG:  Solving for p, Initial residual = 0.00445131, Final residual = 0.000432388, No Iterations 8
time step continuity errors : sum local = 0.000236791, global = 1.61179e-05, cumulative = -0.00295603
smoothSolver:  Solving for omega, Initial residual = 9.9763e-05, Final residual = 5.75676e-06, No Iterations 3
bounding omega, min: -140.149 max: 1.38506e+06 average: 688.246
smoothSolver:  Solving for k, Initial residual = 0.00147442, Final residual = 0.000104563, No Iterations 3
ExecutionTime = 424.49 s  ClockTime = 424 s

forceCoeffs forceCoeffs1 write:
    Coefficient	Total	Pressure	Viscous	Internal
    Cd:	0.424202	0.408852	0.0153501	0
    Cd(f):	0.209402	0.2016	0.00780164	0
    Cd(r):	0.214801	0.207252	0.0075485	0
    Cl:	0.0774723	0.0775697	-9.74308e-05	0
    Cl(f):	0.201109	0.194495	0.00661405	0
    Cl(r):	-0.123637	-0.116925	-0.00671148	0
    CmPitch:	0.162373	0.15571	0.00666277	0
    CmRoll:	-0.00269963	-0.0028262	0.000126568	0
    CmYaw:	-0.00462393	-0.00447602	-0.000147914	0
    Cs:	-0.000379403	-8.90206e-05	-0.000290382	0
    Cs(f):	-0.00481364	-0.00452053	-0.000293106	0
    Cs(r):	0.00443423	0.00443151	2.72308e-06	0

    writing force and moment coefficient files.

Time = 3084

DILUPBiCG:  Solving for Ux, Initial residual = 0.000321541, Final residual = 2.67994e-05, No Iterations 2
DILUPBiCG:  Solving for Uy, Initial residual = 0.00607398, Final residual = 0.000447435, No Iterations 2
DILUPBiCG:  Solving for Uz, Initial residual = 0.00570503, Final residual = 0.000525048, No Iterations 2
DICPCG:  Solving for p, Initial residual = 0.00440333, Final residual = 0.000428254, No Iterations 13
time step continuity errors : sum local = 0.000234639, global = 1.99778e-05, cumulative = -0.00293605
smoothSolver:  Solving for omega, Initial residual = 9.93422e-05, Final residual = 5.78015e-06, No Iterations 3
bounding omega, min: -139.868 max: 1.38506e+06 average: 688.193
smoothSolver:  Solving for k, Initial residual = 0.00147616, Final residual = 0.00010554, No Iterations 3
ExecutionTime = 424.86 s  ClockTime = 425 s

forceCoeffs forceCoeffs1 write:
    Coefficient	Total	Pressure	Viscous	Internal
    Cd:	0.423355	0.407989	0.0153669	0
    Cd(f):	0.209083	0.201273	0.00781005	0
    Cd(r):	0.214273	0.206716	0.00755684	0
    Cl:	0.0793518	0.0794434	-9.15722e-05	0
    Cl(f):	0.200789	0.194165	0.00662438	0
    Cl(r):	-0.121437	-0.114721	-0.00671595	0
    CmPitch:	0.161113	0.154443	0.00667016	0
    CmRoll:	-0.002595	-0.00272161	0.000126607	0
    CmYaw:	-0.0052895	-0.00513962	-0.000149885	0
    Cs:	-0.00122737	-0.00093873	-0.000288645	0
    Cs(f):	-0.00590319	-0.00560898	-0.000294207	0
    Cs(r):	0.00467582	0.00467025	5.56212e-06	0

    writing force and moment coefficient files.

Time = 3085

DILUPBiCG:  Solving for Ux, Initial residual = 0.000326251, Final residual = 2.90551e-05, No Iterations 2
DILUPBiCG:  Solving for Uy, Initial residual = 0.00642758, Final residual = 0.000509094, No Iterations 2
DILUPBiCG:  Solving for Uz, Initial residual = 0.00580776, Final residual = 0.0005143, No Iterations 2
DICPCG:  Solving for p, Initial residual = 0.00445281, Final residual = 0.000426723, No Iterations 8
time step continuity errors : sum local = 0.000233981, global = 2.48942e-05, cumulative = -0.00291116
smoothSolver:  Solving for omega, Initial residual = 9.90081e-05, Final residual = 5.71217e-06, No Iterations 3
bounding omega, min: -138.057 max: 1.38506e+06 average: 688.172
smoothSolver:  Solving for k, Initial residual = 0.00147653, Final residual = 0.000105872, No Iterations 3
ExecutionTime = 425.22 s  ClockTime = 425 s

forceCoeffs forceCoeffs1 write:
    Coefficient	Total	Pressure	Viscous	Internal
    Cd:	0.422832	0.407449	0.0153829	0
    Cd(f):	0.208907	0.201088	0.00781954	0
    Cd(r):	0.213925	0.206362	0.00756335	0
    Cl:	0.079963	0.080049	-8.59613e-05	0
    Cl(f):	0.200687	0.194052	0.00663515	0
    Cl(r):	-0.120724	-0.114003	-0.00672111	0
    CmPitch:	0.160705	0.154027	0.00667813	0
    CmRoll:	-0.00250901	-0.00263711	0.000128096	0
    CmYaw:	-0.00558591	-0.00543392	-0.00015199	0
    Cs:	-0.00168369	-0.00139416	-0.000289535	0
    Cs(f):	-0.00642776	-0.006131	-0.000296757	0
    Cs(r):	0.00474407	0.00473685	7.22235e-06	0

    writing force and moment coefficient files.

Time = 3086

DILUPBiCG:  Solving for Ux, Initial residual = 0.000320589, Final residual = 4.72826e-06, No Iterations 3
DILUPBiCG:  Solving for Uy, Initial residual = 0.00621082, Final residual = 0.000479325, No Iterations 2
DILUPBiCG:  Solving for Uz, Initial residual = 0.00569344, Final residual = 0.000457809, No Iterations 2
DICPCG:  Solving for p, Initial residual = 0.00441988, Final residual = 0.000437014, No Iterations 14
time step continuity errors : sum local = 0.00023969, global = 2.51585e-05, cumulative = -0.002886
smoothSolver:  Solving for omega, Initial residual = 9.845e-05, Final residual = 5.54733e-06, No Iterations 3
bounding omega, min: -137.175 max: 1.38506e+06 average: 688.12
smoothSolver:  Solving for k, Initial residual = 0.00147268, Final residual = 0.000105923, No Iterations 3
ExecutionTime = 425.61 s  ClockTime = 425 s

forceCoeffs forceCoeffs1 write:
    Coefficient	Total	Pressure	Viscous	Internal
    Cd:	0.421357	0.405963	0.0153937	0
    Cd(f):	0.20893	0.201102	0.00782778	0
    Cd(r):	0.212427	0.204861	0.00756595	0
    Cl:	0.0816099	0.0816915	-8.1598e-05	0
    Cl(f):	0.200387	0.193744	0.00664365	0
    Cl(r):	-0.118777	-0.112052	-0.00672525	0
    CmPitch:	0.159582	0.152898	0.00668445	0
    CmRoll:	-0.00174894	-0.00187986	0.000130913	0
    CmYaw:	-0.00636069	-0.00620387	-0.000156817	0
    Cs:	-0.00466327	-0.00436784	-0.000295435	0
    Cs(f):	-0.00869232	-0.00838779	-0.000304535	0
    Cs(r):	0.00402905	0.00401995	9.09949e-06	0

    writing force and moment coefficient files.

Time = 3087

DILUPBiCG:  Solving for Ux, Initial residual = 0.000325711, Final residual = 3.16462e-05, No Iterations 2
DILUPBiCG:  Solving for Uy, Initial residual = 0.00654359, Final residual = 0.000514849, No Iterations 2
DILUPBiCG:  Solving for Uz, Initial residual = 0.00582336, Final residual = 0.000442568, No Iterations 2
DICPCG:  Solving for p, Initial residual = 0.00451712, Final residual = 0.000425814, No Iterations 8
time step continuity errors : sum local = 0.000233688, global = 2.58922e-05, cumulative = -0.00286011
smoothSolver:  Solving for omega, Initial residual = 9.78839e-05, Final residual = 5.44939e-06, No Iterations 3
bounding omega, min: -134.709 max: 1.38506e+06 average: 688.106
smoothSolver:  Solving for k, Initial residual = 0.00147081, Final residual = 0.000106001, No Iterations 3
ExecutionTime = 425.98 s  ClockTime = 426 s

forceCoeffs forceCoeffs1 write:
    Coefficient	Total	Pressure	Viscous	Internal
    Cd:	0.421017	0.405617	0.0153991	0
    Cd(f):	0.208924	0.20109	0.00783339	0
    Cd(r):	0.212093	0.204527	0.00756575	0
    Cl:	0.0823484	0.0824279	-7.95255e-05	0
    Cl(f):	0.200439	0.19379	0.00664854	0
    Cl(r):	-0.118091	-0.111362	-0.00672807	0
    CmPitch:	0.159265	0.152576	0.0066883	0
    CmRoll:	-0.00158438	-0.0017182	0.000133821	0
    CmYaw:	-0.00641896	-0.00625898	-0.000159985	0
    Cs:	-0.00547248	-0.00517114	-0.000301338	0
    Cs(f):	-0.0091552	-0.00884455	-0.000310654	0
    Cs(r):	0.00368272	0.0036734	9.31585e-06	0

    writing force and moment coefficient files.

Time = 3088

DILUPBiCG:  Solving for Ux, Initial residual = 0.000321413, Final residual = 1.25986e-05, No Iterations 3
DILUPBiCG:  Solving for Uy, Initial residual = 0.00627486, Final residual = 0.000458452, No Iterations 2
DILUPBiCG:  Solving for Uz, Initial residual = 0.00569323, Final residual = 0.000375228, No Iterations 2
DICPCG:  Solving for p, Initial residual = 0.00448228, Final residual = 0.000434906, No Iterations 19
time step continuity errors : sum local = 0.000238726, global = 1.9283e-05, cumulative = -0.00284082
smoothSolver:  Solving for omega, Initial residual = 9.74562e-05, Final residual = 5.43697e-06, No Iterations 3
bounding omega, min: -137.807 max: 1.38506e+06 average: 688.086
smoothSolver:  Solving for k, Initial residual = 0.00146293, Final residual = 0.000105702, No Iterations 3
ExecutionTime = 426.38 s  ClockTime = 426 s

forceCoeffs forceCoeffs1 write:
    Coefficient	Total	Pressure	Viscous	Internal
    Cd:	0.418506	0.40311	0.0153965	0
    Cd(f):	0.209191	0.201355	0.00783638	0
    Cd(r):	0.209315	0.201755	0.00756016	0
    Cl:	0.0833557	0.083438	-8.23849e-05	0
    Cl(f):	0.199927	0.193279	0.0066479	0
    Cl(r):	-0.116571	-0.109841	-0.00673029	0
    CmPitch:	0.158249	0.15156	0.00668909	0
    CmRoll:	-6.20146e-05	-0.000200127	0.000138113	0
    CmYaw:	-0.00680698	-0.00664332	-0.00016366	0
    Cs:	-0.00969733	-0.00938491	-0.00031242	0
    Cs(f):	-0.0116556	-0.0113358	-0.00031987	0
    Cs(r):	0.00195832	0.00195087	7.45052e-06	0

    writing force and moment coefficient files.

Time = 3089

DILUPBiCG:  Solving for Ux, Initial residual = 0.000331421, Final residual = 4.41576e-06, No Iterations 4
DILUPBiCG:  Solving for Uy, Initial residual = 0.00671779, Final residual = 0.00050622, No Iterations 2
DILUPBiCG:  Solving for Uz, Initial residual = 0.00588028, Final residual = 0.000370959, No Iterations 2
DICPCG:  Solving for p, Initial residual = 0.0046323, Final residual = 0.000435386, No Iterations 8
time step continuity errors : sum local = 0.00023914, global = 1.19694e-05, cumulative = -0.00282886
smoothSolver:  Solving for omega, Initial residual = 9.65583e-05, Final residual = 5.50279e-06, No Iterations 3
bounding omega, min: -138.348 max: 1.38506e+06 average: 688.08
smoothSolver:  Solving for k, Initial residual = 0.00145382, Final residual = 0.000104782, No Iterations 3
ExecutionTime = 426.76 s  ClockTime = 427 s

forceCoeffs forceCoeffs1 write:
    Coefficient	Total	Pressure	Viscous	Internal
    Cd:	0.418773	0.403382	0.0153917	0
    Cd(f):	0.209262	0.201425	0.00783734	0
    Cd(r):	0.209511	0.201957	0.00755432	0
    Cl:	0.083832	0.0839196	-8.758e-05	0
    Cl(f):	0.200185	0.19354	0.00664506	0
    Cl(r):	-0.116353	-0.10962	-0.00673264	0
    CmPitch:	0.158269	0.15158	0.00668885	0
    CmRoll:	-0.000124521	-0.000266034	0.000141513	0
    CmYaw:	-0.00663462	-0.00646932	-0.000165296	0
    Cs:	-0.00971426	-0.009394	-0.000320261	0
    Cs(f):	-0.0114918	-0.0111663	-0.000325426	0
    Cs(r):	0.00177749	0.00177232	5.16527e-06	0

    writing force and moment coefficient files.

Time = 3090

DILUPBiCG:  Solving for Ux, Initial residual = 0.000326055, Final residual = 1.1715e-05, No Iterations 3
DILUPBiCG:  Solving for Uy, Initial residual = 0.00635232, Final residual = 0.000418998, No Iterations 2
DILUPBiCG:  Solving for Uz, Initial residual = 0.00571839, Final residual = 0.000401502, No Iterations 2
DICPCG:  Solving for p, Initial residual = 0.00449998, Final residual = 0.000430921, No Iterations 10
time step continuity errors : sum local = 0.000236705, global = 5.65282e-06, cumulative = -0.0028232
smoothSolver:  Solving for omega, Initial residual = 9.65284e-05, Final residual = 5.56353e-06, No Iterations 3
bounding omega, min: -139.655 max: 1.38506e+06 average: 687.998
smoothSolver:  Solving for k, Initial residual = 0.00144307, Final residual = 0.000103446, No Iterations 3
ExecutionTime = 427.16 s  ClockTime = 427 s


    From virtual bool Foam::regIOobject::readIfModified()
    in file db/regIOobject/regIOobjectRead.C at line 271
        Re-reading object fvSolution from file "/home/adrian/run/TFG/TFG_FILES/aeroDynamicSimulations/motorBike/system/fvSolution"
forceCoeffs forceCoeffs1 write:
    Coefficient	Total	Pressure	Viscous	Internal
    Cd:	0.418752	0.403371	0.0153811	0
    Cd(f):	0.209259	0.201425	0.00783406	0
    Cd(r):	0.209493	0.201946	0.00754705	0
    Cl:	0.0841077	0.0842011	-9.33521e-05	0
    Cl(f):	0.200567	0.193928	0.00663957	0
    Cl(r):	-0.116459	-0.109727	-0.00673292	0
    CmPitch:	0.158513	0.151827	0.00668625	0
    CmRoll:	-0.000116843	-0.000260351	0.000143508	0
    CmYaw:	-0.0063379	-0.006172	-0.000165903	0
    Cs:	-0.00955496	-0.00923084	-0.000324125	0
    Cs(f):	-0.0111154	-0.0107874	-0.000327966	0
    Cs(r):	0.00156042	0.00155658	3.84069e-06	0

    writing force and moment coefficient files.

Time = 3091

